!  This chemkin file was generated by RMG - Reaction Mechanism Generator (http://rmg.mit.edu)
!  The java code was compiled by ant at:
!    2010-06-03T15:58:41
!  The git repository was on the branch:
!    autoxidation
!  And at the commit with the hash:
!    68c75c9d5ffbc21d425d374b8d224762a9598ad3
!
!  For details visit:
!   http://github.com/GreenGroup/RMG-Java/tree/68c75c
!To see changes since then visit:
!   http://github.com/GreenGroup/RMG-Java/compare/68c75c...master

ELEMENTS H C O N Ne Ar He Si S END
SPECIES
	SPC(1)	!n-decylbenzene
	SPC(2)	!n-undecane
	SPC(3)	!n-tridecane
	SPC(4)	!naphthalene
	SPC(5)	!n-hexadecane
	O2(6)
	SPC(7)	!n-nonadecane
	SPC(8)	!n-heneicosane
	HO2J(43)
	SPC(17)	!C16H25J
	C11H9J(66)
	SPC(117)	!C16H25O2J
	SPC(120)	!C16H26O2
	SPC(136)	!C11H9O2J
	SPC(137)	!C11H10O2
	SPC(119)	!C16H24
	H2O2(101)
	SPC(218)	!C16H23J
	SPC(254)	!C16H23O2J
	SPC(268)	!C16H24O2
	SPC(261)	!C16H23O2J
	SPC(271)	!C16H24O2
	SPC(395)	!C16H23O2J
	SPC(439)	!C16H23O4J
END
THERMO ALL
   300.000  1000.000  5000.000
! The first four sets of polynomial coefficients (Ar, N2, Ne, He) are from         
! THIRD MILLENIUM IDEAL GAS AND CONDENSED PHASE THERMOCHEMICAL DATABASE FOR     
! COMBUSTION WITH UPDATES FROM ACTIVE THERMOCHENICAL TABLES                     
! Authors: Alexander Burcat and Branko Ruscic                                   
!                                                                               
! The rest of the species are estimated by RMG (http://rmg.mit.edu/)            
Ar                L 6/88Ar  1               G   200.000  6000.000 1000.        1
 0.25000000E+01 0.00000000E+00 0.00000000E+00 0.00000000E+00 0.00000000E+00    2
-0.74537500E+03 0.43796749E+01 0.25000000E+01 0.00000000E+00 0.00000000E+00    3
 0.00000000E+00 0.00000000E+00-0.74537500E+03 0.43796749E+01                   4
N2                G 8/02N   2               G   200.000  6000.000 1000.        1
 2.95257637E+00 1.39690040E-03-4.92631603E-07 7.86010195E-11-4.60755204E-15    2
-9.23948688E+02 5.87188762E+00 3.53100528E+00-1.23660988E-04-5.02999433E-07    3
 2.43530612E-09-1.40881235E-12-1.04697628E+03 2.96747038E+00                   4
Ne                L10/90Ne  1               G    200.0   6000.00  1000.0       1
 0.25000000E+01 0.00000000E+00 0.00000000E+00 0.00000000E+00 0.00000000E+00    2
-0.74537500E+03 0.33553227E+01 0.25000000E+01 0.00000000E+00 0.00000000E+00    3
 0.00000000E+00 0.00000000E+00-0.74537498E+03 0.33553227E+01                   4
He REF ELEMENT          He  1               G   200.000  6000.000 1000.        1
 2.50000000E+00 0.00000000E+00 0.00000000E+00 0.00000000E+00 0.00000000E+00    2
-7.45375000E+02 9.28723974E-01 2.50000000E+00 0.00000000E+00 0.00000000E+00    3
 0.00000000E+00 0.00000000E+00-7.45375000E+02 9.28723974E-01 0.00000000E+00    4

!Estimated by RMG using Group Additivity
SPC(1)                  C  16H  26          G   300.000  5000.000   995.043    1
 3.57646840E+01 7.38090261E-02-2.64824772E-05 4.28846807E-09-2.57946794E-13    2
-5.14393134E+04-2.03458432E+02 2.20795129E+00 1.03781096E-01 8.65048752E-05    3
-1.77383310E-07 7.20111554E-11-3.95669421E+04-1.56324963E+01                   4

!Estimated by RMG using Group Additivity
SPC(2)                  C  11H  24          G   300.000  5000.000   995.043    1
 2.60061484E+01 6.38892438E-02-2.28407483E-05 3.69027154E-09-2.21693293E-13    2
-5.98122669E+04-1.44372355E+02 2.80660224E+00 8.83404413E-02 4.40278881E-05    3
-1.10607521E-07 4.59558203E-11-5.17889195E+04-1.54461970E+01                   4

!Estimated by RMG using Group Additivity
SPC(3)                  C  13H  28          G   300.000  5000.000   995.043    1
 3.07053495E+01 7.49686651E-02-2.68781610E-05 4.35126880E-09-2.61768180E-13    2
-6.86232867E+04-1.70063527E+02 2.58151103E+00 1.08998739E-01 4.09515605E-05    3
-1.20908911E-07 5.12624648E-11-5.91141937E+04-1.48635330E+01                   4

!Estimated by RMG using Group Additivity
SPC(4)                  C  11H  10          G   300.000  5000.000   995.043    1
 1.99543052E+01 3.65535524E-02-1.29116584E-05 2.06136391E-09-1.22616726E-13    2
-8.90071304E+03-1.22132762E+02 2.91765803E+00 3.26525402E-02 1.02090605E-04    3
-1.48098918E-07 5.59730704E-11-1.92671435E+03-2.20183862E+01                   4

!Estimated by RMG using Group Additivity
SPC(5)                  C  16H  34          G   300.000  5000.000   995.043    1
 3.77541511E+01 9.15877972E-02-3.29342801E-05 5.34276469E-09-3.21880512E-13    2
-8.17208370E+04-2.08201027E+02 2.24387421E+00 1.39986184E-01 3.63370692E-05    3
-1.36360995E-07 5.92224316E-11-6.99831259E+04-1.35902780E+01                   4

!Estimated by RMG using Group Additivity
O2(6)                   C   0H   0O   2     G   300.000  5000.000   995.043    1
 3.31508547E+00 1.32006465E-03-5.32714395E-07 9.20149371E-11-5.75811318E-15    2
-4.53677493E+03-5.04042637E+00 3.54508403E+00-1.39003342E-03 6.24430868E-06    3
-6.25186428E-09 2.04119777E-12-4.49415352E+03-5.70472615E+00                   4

!Estimated by RMG using Group Additivity
SPC(7)                  C  19H  40          G   300.000  5000.000   995.043    1
 4.48029527E+01 1.08206929E-01-3.89903992E-05 6.33426058E-09-3.81992844E-13    2
-9.47061957E+04-2.45962045E+02 1.90623740E+00 1.70973630E-01 3.17225778E-05    3
-1.51813080E-07 6.71823984E-11-8.07398663E+04-1.19405407E+01                   4

!Estimated by RMG using Group Additivity
SPC(8)                  C  21H  44          G   300.000  5000.000   995.043    1
 4.95021538E+01 1.19286351E-01-4.30278119E-05 6.99525783E-09-4.22067732E-13    2
-1.03312543E+05-2.70966399E+02 1.68114619E+00 1.91631927E-01 2.86462502E-05    3
-1.62114469E-07 7.24890430E-11-8.78604685E+04-1.06710580E+01                   4

!Estimated by RMG using Group Additivity
HO2J(43)                C   0H   1O   2     G   300.000  5000.000   995.043    1
 3.24380419E+00 3.66065214E-03-1.26589715E-06 1.97776743E-10-1.15806423E-14    2
-7.07850170E+03-1.11026205E+01 4.03383318E+00-1.43110813E-03 9.29796195E-06    3
-8.81491966E-09 2.73898818E-12-7.14087659E+03-1.44335268E+01                   4

!Estimated by RMG using Group Additivity
SPC(17)                 C  16H  25          G   300.000  5000.000   995.043    1
 3.52276567E+01 7.24578819E-02-2.57178347E-05 4.12778059E-09-2.46719165E-13    2
-3.39010384E+04-2.01840008E+02 2.04608900E+00 1.12496734E-01 5.46452407E-05    3
-1.43995589E-07 6.06563026E-11-2.26763503E+04-1.87015467E+01                   4

!Estimated by RMG using Group Additivity
C11H9J(66)              C  11H   9          G   300.000  5000.000   995.043    1
 2.09447403E+01 3.31035326E-02-1.09946431E-05 1.66872551E-09-9.55340668E-14    2
 9.31275374E+03-1.28696992E+02 2.40968256E+00 3.92209220E-02 8.28829481E-05    3
-1.30303477E-07 5.04167544E-11 1.63871794E+04-2.23548719E+01                   4

!Estimated by RMG using Group Additivity
SPC(117)                C  16H  25O   2     G   300.000  5000.000   995.043    1
 3.93281701E+01 7.33811309E-02-2.62825804E-05 4.24850316E-09-2.55207399E-13    2
-4.68259952E+04-2.17939508E+02 1.91369136E+00 1.21552533E-01 5.52124514E-05    3
-1.53605444E-07 6.53467977E-11-3.43191421E+04-1.21908809E+01                   4

!Estimated by RMG using Group Additivity
SPC(120)                C  16H  26O   2     G   300.000  5000.000   995.043    1
 4.13730003E+01 7.42453469E-02-2.67793704E-05 4.34872225E-09-2.62013537E-13    2
-6.59036823E+04-2.30566076E+02 1.86374216E+00 1.23303633E-01 6.47359727E-05    3
-1.67827944E-07 7.08502949E-11-5.26069769E+04-1.28476021E+01                   4

!Estimated by RMG using Group Additivity
SPC(136)                C  11H   9O   2     G   300.000  5000.000   995.043    1
 2.24632134E+01 3.73922606E-02-1.33627224E-05 2.14958613E-09-1.28559777E-13    2
-1.69183084E+03-1.29848546E+02 2.82206171E+00 5.33097506E-02 5.76709512E-05    3
-1.09110308E-07 4.38213306E-11 5.33768022E+03-1.95074442E+01                   4

!Estimated by RMG using Group Additivity
SPC(137)                C  11H  10O   2     G   300.000  5000.000   995.043    1
 2.45080436E+01 3.82564765E-02-1.38595123E-05 2.24980521E-09-1.35365915E-13    2
-2.07695179E+04-1.42475114E+02 2.77211252E+00 5.50608512E-02 6.71944726E-05    3
-1.23332808E-07 4.93248278E-11-1.29501545E+04-2.01641654E+01                   4

!Estimated by RMG using Group Additivity
SPC(119)                C  16H  24          G   300.000  5000.000   995.043    1
 3.53752816E+01 6.91278701E-02-2.46548810E-05 3.97530308E-09-2.38388072E-13    2
-3.73516892E+04-1.99053115E+02 2.12163523E+00 1.02181435E-01 7.72052468E-05    3
-1.65898538E-07 6.79754192E-11-2.57525025E+04-1.37575311E+01                   4

!Estimated by RMG using Group Additivity
H2O2(101)               C   0H   2O   2     G   300.000  5000.000   995.043    1
 5.16924380E+00 3.40955858E-03-1.00163571E-06 1.37410746E-10-7.24183505E-15    2
-2.44517280E+04-2.19908544E+01 3.81742358E+00 2.54032760E-03 9.81098709E-06    3
-1.34733297E-08 5.01192779E-12-2.38706487E+04-1.39077705E+01                   4

!Estimated by RMG using Group Additivity
SPC(218)                C  16H  23          G   300.000  5000.000   995.043    1
 3.50755169E+01 6.73924024E-02-2.41111336E-05 3.89325656E-09-2.33649931E-13    2
-2.03408388E+04-1.98786120E+02 2.14952896E+00 9.83690859E-02 8.20250918E-05    3
-1.69612826E-07 6.90855238E-11-8.76924860E+03-1.48806822E+01                   4

!Estimated by RMG using Group Additivity
SPC(254)                C  16H  23O   2     G   300.000  5000.000   995.043    1
 3.99191980E+01 6.73849980E-02-2.40798120E-05 3.88835883E-09-2.33426332E-13    2
-3.32777383E+04-2.19792836E+02 1.82753153E+00 1.22523628E-01 4.05131149E-05    3
-1.38353997E-07 6.03690509E-11-2.08462691E+04-1.18365201E+01                   4

!Estimated by RMG using Group Additivity
SPC(268)                C  16H  24O   2     G   300.000  5000.000   995.043    1
 4.19640282E+01 6.82492139E-02-2.45766020E-05 3.98857791E-09-2.40232471E-13    2
-5.23554254E+04-2.32419404E+02 1.77758233E+00 1.24274729E-01 5.00366362E-05    3
-1.52576497E-07 6.58725482E-11-3.91341038E+04-1.24932412E+01                   4

!Estimated by RMG using Group Additivity
SPC(261)                C  16H  23O   2     G   300.000  5000.000   995.043    1
 3.81920832E+01 6.96739845E-02-2.50982592E-05 4.07324407E-09-2.45338692E-13    2
-3.26549091E+04-2.10435111E+02 2.05036700E+00 1.15017460E-01 5.72099610E-05    3
-1.52014183E-07 6.43321208E-11-2.05146394E+04-1.13897880E+01                   4

!Estimated by RMG using Group Additivity
SPC(271)                C  16H  24O   2     G   300.000  5000.000   995.043    1
 4.02369134E+01 7.05382004E-02-2.55950492E-05 4.17346315E-09-2.52144831E-13    2
-5.17325962E+04-2.23061679E+02 2.00041780E+00 1.16768561E-01 6.67334823E-05    3
-1.66236683E-07 6.98356181E-11-3.88024741E+04-1.20465092E+01                   4

!Estimated by RMG using Group Additivity
SPC(395)                C  16H  23O   2     G   300.000  5000.000   995.043    1
 3.99371487E+01 6.88027327E-02-2.50513018E-05 4.09141663E-09-2.47406689E-13    2
-3.47217458E+04-2.22794684E+02 2.02831153E+00 1.12956212E-01 7.15533274E-05    3
-1.69950970E-07 7.09457228E-11-2.18192203E+04-1.31696603E+01                   4

!Estimated by RMG using Group Additivity
SPC(439)                C  16H  23O   4     G   300.000  5000.000   995.043    1
 4.47808298E+01 6.87953283E-02-2.50199802E-05 4.08651891E-09-2.47183091E-13    2
-4.76168532E+04-2.43661157E+02 1.70631410E+00 1.37110754E-01 3.00413504E-05    3
-1.38692142E-07 6.22292499E-11-3.38544487E+04-9.98525632E+00                   4

END

REACTIONS	KCAL/MOL	MOLES
HO2J(43)+SPC(17)=O2(6)+SPC(1) 3.0000000e+11 	 0.00000 	 0.00000 	 !Disproportionation estimate: (Average:)  O_Orad     C_rad/H/OneDeC     
SPC(1)+O2(6)=>SPC(17)+HO2J(43) 4.0000000e+16 	 0.00000 	 28.86735 	 !primary_initiation exact:   RH     O2d      (Ea computed using deltaHrxn(T=298K) of 28.86735206942369 kcal/mol)
HO2J(43)+C11H9J(66)=O2(6)+SPC(4) 3.0000000e+11 	 0.00000 	 0.00000 	 !Disproportionation estimate: (Average:)  O_Orad     C_rad/H2/Cb     
SPC(4)+O2(6)=>C11H9J(66)+HO2J(43) 6.0000000e+16 	 0.00000 	 31.46716 	 !primary_initiation exact:   RH     O2d      (Ea computed using deltaHrxn(T=298K) of 31.467158713826272 kcal/mol)
C11H9J(66)+SPC(1)=SPC(4)+SPC(17) 3.0397882e+06 	 1.88583 	 9.44833 	 !H_Abstraction estimate: (Average:)  C_rad/H2/Cb     C/H2/OneDeC     
O2(6)+SPC(17)=SPC(117) 7.5400000e+12 	 0.00000 	 0.00000 	 !R_Addition_MultipleBond estimate: (Average:)  O2d     C_rad/H/OneDeC     
SPC(17)+O2(6)=>SPC(117) 2.0000000e+11 	 0.00000 	 0.00000 	 !O2_addition exact:   R_rad     O2d     
SPC(17)+HO2J(43)=SPC(120) 1.6424769e+13 	 -0.15000 	 0.31000 	 !R_Recombination estimate: (Average:)  C_rad/H/OneDeC     O_rad/NonDe     
SPC(1)+SPC(117)=SPC(17)+SPC(120) 2.4900538e+09 	 0.95000 	 5.75150 	 !H_Abstraction estimate: (Average:)  C/H2/OneDeC     O_rad/NonDeO     
C11H9J(66)+SPC(120)=SPC(4)+SPC(117) 1.0152493e+00 	 3.29000 	 1.07250 	 !H_Abstraction estimate: (Average:)  C_rad/H2/Cb     O/H/NonDeO     
SPC(117)+HO2J(43)=SPC(120)+O2(6) 1.7500000e+10 	 0.00000 	 -3.27500 	 !Disproportionation estimate: (Average:)  O_rad/NonDeO     O_Orad     
O2(6)+C11H9J(66)=SPC(136) 4.5200000e+12 	 0.00000 	 0.00000 	 !R_Addition_MultipleBond estimate: (Average:)  O2d     C_rad/H2/Cb     
C11H9J(66)+O2(6)=>SPC(136) 2.0000000e+11 	 0.00000 	 0.00000 	 !O2_addition exact:   R_rad     O2d     
C11H9J(66)+HO2J(43)=SPC(137) 1.6424769e+13 	 -0.15000 	 0.31000 	 !R_Recombination estimate: (Average:)  C_rad/H2/Cb     O_rad/NonDe     
SPC(1)+SPC(136)=SPC(17)+SPC(137) 2.4900538e+09 	 0.95000 	 5.75150 	 !H_Abstraction estimate: (Average:)  C/H2/OneDeC     O_rad/NonDeO     
C11H9J(66)+SPC(137)=SPC(4)+SPC(136) 1.0152493e+00 	 3.29000 	 1.07250 	 !H_Abstraction estimate: (Average:)  C_rad/H2/Cb     O/H/NonDeO     
SPC(120)+SPC(136)=SPC(117)+SPC(137) 1.0000000e+10 	 0.00000 	 3.30000 	 !H_Abstraction exact:   O/H/NonDeO     O_rad/NonDeO      (Ea computed using deltaHrxn(T=298K) of 2.1957010432060997E-7 kcal/mol)
SPC(136)+HO2J(43)=SPC(137)+O2(6) 1.7500000e+10 	 0.00000 	 -3.27500 	 !Disproportionation estimate: (Average:)  O_rad/NonDeO     O_Orad     
SPC(17)+SPC(17)=SPC(1)+SPC(119) 1.0260000e+14 	 -0.35000 	 0.00000 	 !Disproportionation estimate: (Average:)  C_rad/H/OneDeC     C/H2/Nd_Csrad     
O2(6)+SPC(17)=HO2J(43)+SPC(119) 9.0330000e+10 	 0.00000 	 0.00000 	 !Disproportionation_O2d exact:   O2d     C/H2/Nd_Csrad     
C11H9J(66)+SPC(17)=SPC(4)+SPC(119) 2.0088970e+12 	 0.00000 	 -0.04333 	 !Disproportionation estimate: (Average:)  C_rad/H2/Cb     C/H2/Nd_Csrad     
SPC(117)+SPC(17)=SPC(120)+SPC(119) 4.8200000e+13 	 0.00000 	 0.00000 	 !Disproportionation estimate: (Average:)  O_rad/NonDeO     C/H2/Nd_Csrad     
SPC(117)=>HO2J(43)+SPC(119) 8.0040557e+10 	 0.56333 	 29.80000 	 !HO2_Elimination_from_PeroxyRadical estimate: (Average:)  R2OO_HNd_HDe     
SPC(136)+SPC(17)=SPC(137)+SPC(119) 4.8200000e+13 	 0.00000 	 0.00000 	 !Disproportionation estimate: (Average:)  O_rad/NonDeO     C/H2/Nd_Csrad     
SPC(17)+H2O2(101)=SPC(1)+HO2J(43) 1.8409782e+00 	 3.33667 	 1.13833 	 !H_Abstraction estimate: (Average:)  C_rad/H/OneDeC     H2O2     
C11H9J(66)+H2O2(101)=SPC(4)+HO2J(43) 2.0304987e+00 	 3.29000 	 1.07250 	 !H_Abstraction estimate: (Average:)  C_rad/H2/Cb     H2O2     
HO2J(43)+HO2J(43)=H2O2(101)+O2(6) 1.7500000e+10 	 0.00000 	 -3.27500 	 !Disproportionation estimate: (Average:)  O_rad/NonDeO     O_Orad     
HO2J(43)+SPC(17)=H2O2(101)+SPC(119) 4.8200000e+13 	 0.00000 	 0.00000 	 !Disproportionation estimate: (Average:)  O_rad/NonDeO     C/H2/Nd_Csrad     
SPC(117)+H2O2(101)=SPC(120)+HO2J(43) 2.0000000e+10 	 0.00000 	 -1.30457 	 !H_Abstraction estimate: (Average:)  O_rad/NonDeO     H2O2      (Ea computed using deltaHrxn(T=298K) of -3.0697143667867497 kcal/mol)
SPC(136)+H2O2(101)=SPC(137)+HO2J(43) 2.0000000e+10 	 0.00000 	 -1.30457 	 !H_Abstraction estimate: (Average:)  O_rad/NonDeO     H2O2      (Ea computed using deltaHrxn(T=298K) of -3.069714147216656 kcal/mol)
SPC(218)+H2O2(101)=SPC(119)+HO2J(43) 1.8409782e+00 	 3.33667 	 1.13833 	 !H_Abstraction estimate: (Average:)  C_rad/H/OneDeC     H2O2     
SPC(119)+SPC(17)=SPC(218)+SPC(1) 3.0397882e+06 	 1.88583 	 9.44833 	 !H_Abstraction estimate: (Average:)  C/H2/OneDeC     C_rad/H/OneDeC     
SPC(119)+C11H9J(66)=SPC(218)+SPC(4) 3.0397882e+06 	 1.88583 	 9.44833 	 !H_Abstraction estimate: (Average:)  C/H2/OneDeC     C_rad/H2/Cb     
SPC(119)+SPC(117)=SPC(218)+SPC(120) 2.4900538e+09 	 0.95000 	 5.75150 	 !H_Abstraction estimate: (Average:)  C/H2/OneDeC     O_rad/NonDeO     
SPC(119)+SPC(136)=SPC(218)+SPC(137) 2.4900538e+09 	 0.95000 	 5.75150 	 !H_Abstraction estimate: (Average:)  C/H2/OneDeC     O_rad/NonDeO     
HO2J(43)+SPC(218)=O2(6)+SPC(119) 3.0000000e+11 	 0.00000 	 0.00000 	 !Disproportionation estimate: (Average:)  O_Orad     C_rad/H/OneDeC     
SPC(17)+SPC(218)=SPC(119)+SPC(119) 1.0260000e+14 	 -0.35000 	 0.00000 	 !Disproportionation estimate: (Average:)  C/H2/Nd_Csrad     C_rad/H/OneDeC     
SPC(119)+O2(6)=>SPC(218)+HO2J(43) 4.0000000e+16 	 0.00000 	 28.56773 	 !primary_initiation exact:   RH     O2d      (Ea computed using deltaHrxn(T=298K) of 28.56773103416206 kcal/mol)
O2(6)+SPC(218)=SPC(254) 7.5400000e+12 	 0.00000 	 0.00000 	 !R_Addition_MultipleBond estimate: (Average:)  O2d     C_rad/H/OneDeC     
SPC(218)+O2(6)=>SPC(254) 2.0000000e+11 	 0.00000 	 0.00000 	 !O2_addition exact:   R_rad     O2d     
SPC(218)+HO2J(43)=SPC(268) 1.6424769e+13 	 -0.15000 	 0.31000 	 !R_Recombination estimate: (Average:)  C_rad/H/OneDeC     O_rad/NonDe     
SPC(1)+SPC(254)=SPC(17)+SPC(268) 2.4900538e+09 	 0.95000 	 5.75150 	 !H_Abstraction estimate: (Average:)  C/H2/OneDeC     O_rad/NonDeO     
C11H9J(66)+SPC(268)=SPC(4)+SPC(254) 1.0152493e+00 	 3.29000 	 1.07250 	 !H_Abstraction estimate: (Average:)  C_rad/H2/Cb     O/H/NonDeO     
SPC(120)+SPC(254)=SPC(117)+SPC(268) 1.0000000e+10 	 0.00000 	 3.30000 	 !H_Abstraction exact:   O/H/NonDeO     O_rad/NonDeO      (Ea computed using deltaHrxn(T=298K) of 2.8702017118575895E-7 kcal/mol)
SPC(137)+SPC(254)=SPC(136)+SPC(268) 1.0000000e+10 	 0.00000 	 3.30000 	 !H_Abstraction exact:   O/H/NonDeO     O_rad/NonDeO      (Ea computed using deltaHrxn(T=298K) of 6.745007397057634E-8 kcal/mol)
SPC(119)+SPC(254)=SPC(218)+SPC(268) 2.4900538e+09 	 0.95000 	 5.75150 	 !H_Abstraction estimate: (Average:)  C/H2/OneDeC     O_rad/NonDeO     
H2O2(101)+SPC(254)=HO2J(43)+SPC(268) 2.0000000e+10 	 0.00000 	 -1.30457 	 !H_Abstraction estimate: (Average:)  H2O2     O_rad/NonDeO      (Ea computed using deltaHrxn(T=298K) of -3.0697140797665767 kcal/mol)
SPC(254)+HO2J(43)=SPC(268)+O2(6) 1.7500000e+10 	 0.00000 	 -3.27500 	 !Disproportionation estimate: (Average:)  O_rad/NonDeO     O_Orad     
SPC(254)+SPC(17)=SPC(268)+SPC(119) 4.8200000e+13 	 0.00000 	 0.00000 	 !Disproportionation estimate: (Average:)  O_rad/NonDeO     C/H2/Nd_Csrad     
O2(6)+SPC(218)=SPC(261) 7.5400000e+12 	 0.00000 	 0.00000 	 !R_Addition_MultipleBond estimate: (Average:)  O2d     C_rad/H/TwoDe     
SPC(218)+O2(6)=>SPC(261) 2.0000000e+11 	 0.00000 	 0.00000 	 !O2_addition exact:   R_rad     O2d     
SPC(218)+HO2J(43)=SPC(271) 1.6424769e+13 	 -0.15000 	 0.31000 	 !R_Recombination estimate: (Average:)  C_rad/H/TwoDe     O_rad/NonDe     
SPC(1)+SPC(261)=SPC(17)+SPC(271) 2.4900538e+09 	 0.95000 	 5.75150 	 !H_Abstraction estimate: (Average:)  C/H2/OneDeC     O_rad/NonDeO     
C11H9J(66)+SPC(271)=SPC(4)+SPC(261) 1.0152493e+00 	 3.29000 	 1.07250 	 !H_Abstraction estimate: (Average:)  C_rad/H2/Cb     O/H/NonDeO     
SPC(120)+SPC(261)=SPC(117)+SPC(271) 1.0000000e+10 	 0.00000 	 3.30000 	 !H_Abstraction exact:   O/H/NonDeO     O_rad/NonDeO      (Ea computed using deltaHrxn(T=298K) of 2.8702017118575895E-7 kcal/mol)
SPC(137)+SPC(261)=SPC(136)+SPC(271) 1.0000000e+10 	 0.00000 	 3.30000 	 !H_Abstraction exact:   O/H/NonDeO     O_rad/NonDeO      (Ea computed using deltaHrxn(T=298K) of 6.745005975972163E-8 kcal/mol)
SPC(119)+SPC(261)=SPC(218)+SPC(271) 2.4900538e+09 	 0.95000 	 5.75150 	 !H_Abstraction estimate: (Average:)  C/H2/OneDeC     O_rad/NonDeO     
H2O2(101)+SPC(261)=HO2J(43)+SPC(271) 2.0000000e+10 	 0.00000 	 -1.30457 	 !H_Abstraction estimate: (Average:)  H2O2     O_rad/NonDeO      (Ea computed using deltaHrxn(T=298K) of -3.069714079766591 kcal/mol)
SPC(268)+SPC(261)=SPC(254)+SPC(271) 1.0000000e+10 	 0.00000 	 3.30000 	 !H_Abstraction exact:   O/H/NonDeO     O_rad/NonDeO      (Ea computed using deltaHrxn(T=298K) of 0.0 kcal/mol)
SPC(261)+HO2J(43)=SPC(271)+O2(6) 1.7500000e+10 	 0.00000 	 -3.27500 	 !Disproportionation estimate: (Average:)  O_rad/NonDeO     O_Orad     
SPC(261)+SPC(17)=SPC(271)+SPC(119) 4.8200000e+13 	 0.00000 	 0.00000 	 !Disproportionation estimate: (Average:)  O_rad/NonDeO     C/H2/Nd_Csrad     
SPC(261)=SPC(395) 1.3086665e+06 	 1.21500 	 16.55333 	 !intra_H_migration estimate: (Average:)  R6H_RSSMS     O_rad_out     Cs_H_out_H/(NonDeC/Cs)     
SPC(395)+H2O2(101)=SPC(271)+HO2J(43) 1.8409782e+00 	 3.33667 	 1.13833 	 !H_Abstraction estimate: (Average:)  C_rad/H/OneDeC     H2O2     
SPC(271)+SPC(17)=SPC(395)+SPC(1) 3.0397882e+06 	 1.88583 	 9.44833 	 !H_Abstraction estimate: (Average:)  C/H2/OneDeC     C_rad/H/OneDeC     
SPC(271)+C11H9J(66)=SPC(395)+SPC(4) 3.0397882e+06 	 1.88583 	 9.44833 	 !H_Abstraction estimate: (Average:)  C/H2/OneDeC     C_rad/H2/Cb     
SPC(271)+SPC(117)=SPC(395)+SPC(120) 2.4900538e+09 	 0.95000 	 5.75150 	 !H_Abstraction estimate: (Average:)  C/H2/OneDeC     O_rad/NonDeO     
SPC(271)+SPC(136)=SPC(395)+SPC(137) 2.4900538e+09 	 0.95000 	 5.75150 	 !H_Abstraction estimate: (Average:)  C/H2/OneDeC     O_rad/NonDeO     
SPC(271)+SPC(218)=SPC(395)+SPC(119) 3.0397882e+06 	 1.88583 	 9.44833 	 !H_Abstraction estimate: (Average:)  C/H2/OneDeC     C_rad/H/OneDeC     
SPC(271)+SPC(254)=SPC(395)+SPC(268) 2.4900538e+09 	 0.95000 	 5.75150 	 !H_Abstraction estimate: (Average:)  C/H2/OneDeC     O_rad/NonDeO     
SPC(271)+SPC(261)=SPC(395)+SPC(271) 2.4900538e+09 	 0.95000 	 5.75150 	 !H_Abstraction estimate: (Average:)  C/H2/OneDeC     O_rad/NonDeO     
HO2J(43)+SPC(395)=O2(6)+SPC(271) 3.0000000e+11 	 0.00000 	 0.00000 	 !Disproportionation estimate: (Average:)  O_Orad     C_rad/H/OneDeC     
SPC(17)+SPC(395)=SPC(119)+SPC(271) 1.0260000e+14 	 -0.35000 	 0.00000 	 !Disproportionation estimate: (Average:)  C/H2/Nd_Csrad     C_rad/H/OneDeC     
SPC(271)+O2(6)=>SPC(395)+HO2J(43) 4.0000000e+16 	 0.00000 	 28.56773 	 !primary_initiation exact:   RH     O2d      (Ea computed using deltaHrxn(T=298K) of 28.567730850048363 kcal/mol)
O2(6)+SPC(395)=SPC(439) 7.5400000e+12 	 0.00000 	 0.00000 	 !R_Addition_MultipleBond estimate: (Average:)  O2d     C_rad/H/OneDeC     
SPC(395)+O2(6)=>SPC(439) 2.0000000e+11 	 0.00000 	 0.00000 	 !O2_addition exact:   R_rad     O2d     
END
