!  This chemkin file was generated by RMG - Reaction Mechanism Generator (http://rmg.mit.edu)
!  The java code was compiled by ant at:
!    2010-06-03T17:16:20
!  The git repository was on the branch:
!    master
!  And at the commit with the hash:
!    fd5d0559212eddf8a50ab507eabc1359a8cf21a9
!
!  For details visit:
!   http://github.com/GreenGroup/RMG-Java/tree/fd5d05
!To see changes since then visit:
!   http://github.com/GreenGroup/RMG-Java/compare/fd5d05...master

ELEMENTS H C O N Ne Ar He Si S END
SPECIES
	Ar
	N2
	O2(1)
	n-C11(2)
	n-C13(3)
	Mnphtln(4)
	n-C16(5)
	C10bnzn(6)
	n-C19(7)
	n-C21(8)
	HO2J(9)
	SPC(42)	!C16H25J
	SPC(117)	!C16H25O2J
	SPC(120)	!C16H26O2
	H2O2(101)
	SPC(119)	!C16H24
END
THERMO ALL
   300.000  1000.000  5000.000
! The first four sets of polynomial coefficients (Ar, N2, Ne, He) are from         
! THIRD MILLENIUM IDEAL GAS AND CONDENSED PHASE THERMOCHEMICAL DATABASE FOR     
! COMBUSTION WITH UPDATES FROM ACTIVE THERMOCHENICAL TABLES                     
! Authors: Alexander Burcat and Branko Ruscic                                   
!                                                                               
! The rest of the species are estimated by RMG (http://rmg.mit.edu/)            
Ar                L 6/88Ar  1               G   200.000  6000.000 1000.        1
 0.25000000E+01 0.00000000E+00 0.00000000E+00 0.00000000E+00 0.00000000E+00    2
-0.74537500E+03 0.43796749E+01 0.25000000E+01 0.00000000E+00 0.00000000E+00    3
 0.00000000E+00 0.00000000E+00-0.74537500E+03 0.43796749E+01                   4
N2                G 8/02N   2               G   200.000  6000.000 1000.        1
 2.95257637E+00 1.39690040E-03-4.92631603E-07 7.86010195E-11-4.60755204E-15    2
-9.23948688E+02 5.87188762E+00 3.53100528E+00-1.23660988E-04-5.02999433E-07    3
 2.43530612E-09-1.40881235E-12-1.04697628E+03 2.96747038E+00                   4
Ne                L10/90Ne  1               G    200.0   6000.00  1000.0       1
 0.25000000E+01 0.00000000E+00 0.00000000E+00 0.00000000E+00 0.00000000E+00    2
-0.74537500E+03 0.33553227E+01 0.25000000E+01 0.00000000E+00 0.00000000E+00    3
 0.00000000E+00 0.00000000E+00-0.74537498E+03 0.33553227E+01                   4
He REF ELEMENT          He  1               G   200.000  6000.000 1000.        1
 2.50000000E+00 0.00000000E+00 0.00000000E+00 0.00000000E+00 0.00000000E+00    2
-7.45375000E+02 9.28723974E-01 2.50000000E+00 0.00000000E+00 0.00000000E+00    3
 0.00000000E+00 0.00000000E+00-7.45375000E+02 9.28723974E-01 0.00000000E+00    4

!Estimated by RMG using Group Additivity
O2(1)                   C   0H   0O   2     G   300.000  5000.000   995.043    1
 3.31508547E+00 1.32006465E-03-5.32714395E-07 9.20149371E-11-5.75811318E-15    2
-4.53677493E+03-5.04042637E+00 3.54508403E+00-1.39003342E-03 6.24430868E-06    3
-6.25186428E-09 2.04119777E-12-4.49415352E+03-5.70472615E+00                   4

!Estimated by RMG using Group Additivity
n-C11(2)                C  11H  24          G   300.000  5000.000   995.043    1
 2.60061484E+01 6.38892438E-02-2.28407483E-05 3.69027154E-09-2.21693293E-13    2
-5.98122669E+04-1.44372355E+02 2.80660224E+00 8.83404413E-02 4.40278881E-05    3
-1.10607521E-07 4.59558203E-11-5.17889195E+04-1.54461970E+01                   4

!Estimated by RMG using Group Additivity
n-C13(3)                C  13H  28          G   300.000  5000.000   995.043    1
 3.07053495E+01 7.49686651E-02-2.68781610E-05 4.35126880E-09-2.61768180E-13    2
-6.86232867E+04-1.70063527E+02 2.58151103E+00 1.08998739E-01 4.09515605E-05    3
-1.20908911E-07 5.12624648E-11-5.91141937E+04-1.48635330E+01                   4

!Estimated by RMG using Group Additivity
Mnphtln(4)              C  11H  10          G   300.000  5000.000   995.043    1
 1.99543052E+01 3.65535524E-02-1.29116584E-05 2.06136391E-09-1.22616726E-13    2
-8.90071304E+03-1.22132762E+02 2.91765803E+00 3.26525402E-02 1.02090605E-04    3
-1.48098918E-07 5.59730704E-11-1.92671435E+03-2.20183862E+01                   4

!Estimated by RMG using Group Additivity
n-C16(5)                C  16H  34          G   300.000  5000.000   995.043    1
 3.77541511E+01 9.15877972E-02-3.29342801E-05 5.34276469E-09-3.21880512E-13    2
-8.17208370E+04-2.08201027E+02 2.24387421E+00 1.39986184E-01 3.63370692E-05    3
-1.36360995E-07 5.92224316E-11-6.99831259E+04-1.35902780E+01                   4

!Estimated by RMG using Group Additivity
C10bnzn(6)              C  16H  26          G   300.000  5000.000   995.043    1
 3.57646840E+01 7.38090261E-02-2.64824772E-05 4.28846807E-09-2.57946794E-13    2
-5.14393134E+04-2.03458432E+02 2.20795129E+00 1.03781096E-01 8.65048752E-05    3
-1.77383310E-07 7.20111554E-11-3.95669421E+04-1.56324963E+01                   4

!Estimated by RMG using Group Additivity
n-C19(7)                C  19H  40          G   300.000  5000.000   995.043    1
 4.48029527E+01 1.08206929E-01-3.89903992E-05 6.33426058E-09-3.81992844E-13    2
-9.47061957E+04-2.45962045E+02 1.90623740E+00 1.70973630E-01 3.17225778E-05    3
-1.51813080E-07 6.71823984E-11-8.07398663E+04-1.19405407E+01                   4

!Estimated by RMG using Group Additivity
n-C21(8)                C  21H  44          G   300.000  5000.000   995.043    1
 4.95021538E+01 1.19286351E-01-4.30278119E-05 6.99525783E-09-4.22067732E-13    2
-1.03312543E+05-2.70966399E+02 1.68114619E+00 1.91631927E-01 2.86462502E-05    3
-1.62114469E-07 7.24890430E-11-8.78604685E+04-1.06710580E+01                   4

!Primary Thermo Library: DFT_QCI (Species ID: HO2)
HO2J(9)                 C   0H   1O   2     G   300.000  5000.000   995.043    1
 3.96158493E+00 2.39192543E-03-7.88957869E-07 1.20676912E-10-6.97181257E-15    2
-6.00942607E+03-1.51296738E+01 3.98358981E+00-2.36160518E-03 1.34093310E-05    3
-1.41036759E-08 4.75061841E-12-5.78285845E+03-1.40752385E+01                   4

!Estimated by RMG using Group Additivity
SPC(42)                 C  16H  25          G   300.000  5000.000   995.043    1
 3.52276567E+01 7.24578819E-02-2.57178347E-05 4.12778059E-09-2.46719165E-13    2
-3.39010384E+04-2.01840008E+02 2.04608900E+00 1.12496734E-01 5.46452407E-05    3
-1.43995589E-07 6.06563026E-11-2.26763503E+04-1.87015467E+01                   4

!Estimated by RMG using Group Additivity
SPC(117)                C  16H  25O   2     G   300.000  5000.000   995.043    1
 3.93281701E+01 7.33811309E-02-2.62825804E-05 4.24850316E-09-2.55207399E-13    2
-4.68259952E+04-2.17939508E+02 1.91369136E+00 1.21552533E-01 5.52124514E-05    3
-1.53605444E-07 6.53467977E-11-3.43191421E+04-1.21908809E+01                   4

!Estimated by RMG using Group Additivity
SPC(120)                C  16H  26O   2     G   300.000  5000.000   995.043    1
 4.13730003E+01 7.42453469E-02-2.67793704E-05 4.34872225E-09-2.62013537E-13    2
-6.59036823E+04-2.30566076E+02 1.86374216E+00 1.23303633E-01 6.47359727E-05    3
-1.67827944E-07 7.08502949E-11-5.26069769E+04-1.28476021E+01                   4

!Primary Thermo Library: DFT_QCI (Species ID: HOOH)
H2O2(101)               C   0H   2O   2     G   300.000  5000.000   995.043    1
 4.60638038E+00 3.85869351E-03-1.24776252E-06 1.87838104E-10-1.07281618E-14    2
-2.42334456E+04-1.87427398E+01 3.91485770E+00 1.13883575E-03 1.11430415E-05    3
-1.36685151E-08 4.86620213E-12-2.38235598E+04-1.40418627E+01                   4

!Estimated by RMG using Group Additivity
SPC(119)                C  16H  24          G   300.000  5000.000   995.043    1
 3.53752816E+01 6.91278701E-02-2.46548810E-05 3.97530308E-09-2.38388072E-13    2
-3.73516892E+04-1.99053115E+02 2.12163523E+00 1.02181435E-01 7.72052468E-05    3
-1.65898538E-07 6.79754192E-11-2.57525025E+04-1.37575311E+01                   4

END

REACTIONS	KCAL/MOL	MOLES
HO2J(9)+SPC(42)=O2(1)+C10bnzn(6) 3.0000000e+11 	 0.00000 	 0.00000 	 !Disproportionation estimate: (Average of: (Y_rad O_Orad))  O_Orad     C_rad/H/OneDeC     
O2(1)+SPC(42)=SPC(117) 7.5400000e+12 	 0.00000 	 0.00000 	 !R_Addition_MultipleBond estimate: (Average of: (O2d C_sec_rad))  O2d     C_rad/H/OneDeC     
SPC(42)+HO2J(9)=SPC(120) 1.6424769e+13 	 -0.15000 	 0.31000 	 !R_Recombination estimate: (Average of: (Average of: (H_rad H_rad && Average of: (C_methyl C_methyl && Average of: (C_rad/H2/Cs C_rad/H2/Cs) && Average of: (C_rad/H/NonDeC C_rad/H/NonDeC) && Average of: (Average of: (C_rad/Cs3 C_rad/Cs3))) && Average of: (Cd_pri_rad Cd_pri_rad) && Cb_rad Cb_rad && Average of: (CO_pri_rad CO_pri_rad && Average of: (CO_rad/NonDe CO_rad/NonDe)) && Average of: (O_pri_rad O_pri_rad && Average of: (O_rad/NonDe O_rad/NonDe)))))  C_rad/H/OneDeC     O_rad/NonDe     
C10bnzn(6)+SPC(117)=SPC(42)+SPC(120) 2.6681028e+09 	 0.95000 	 5.64400 	 !H_Abstraction estimate: (Average of: (Average of: (C/H2/NonDeC O_pri_rad && Average of: (C/H2/NonDeC O_rad/NonDeC && C/H2/NonDeC O_rad/NonDeO))))  C/H2/OneDeC     O_rad/NonDeO     
SPC(117)+HO2J(9)=SPC(120)+O2(1) 1.7500000e+10 	 0.00000 	 -3.27500 	 !Disproportionation estimate: (Average of: (O_sec_rad O_Orad))  O_rad/NonDeO     O_Orad     
C10bnzn(6)+HO2J(9)=SPC(42)+H2O2(101) 2.6681028e+09 	 0.95000 	 5.64400 	 !H_Abstraction estimate: (Average of: (Average of: (C/H2/NonDeC O_pri_rad && Average of: (C/H2/NonDeC O_rad/NonDeC && C/H2/NonDeC O_rad/NonDeO))))  C/H2/OneDeC     O_rad/NonDeO     
HO2J(9)+HO2J(9)=H2O2(101)+O2(1) 1.7500000e+10 	 0.00000 	 -3.27500 	 !Disproportionation estimate: (Average of: (O_sec_rad O_Orad))  O_rad/NonDeO     O_Orad     
SPC(117)+H2O2(101)=SPC(120)+HO2J(9) 3.4600000e+01 	 3.40000 	 -1.14000 	 !H_Abstraction estimate: (Average of: (Average of: (O/H/NonDeC O_pri_rad)))  O_rad/NonDeO     H2O2     
HO2J(9)+SPC(42)=H2O2(101)+SPC(119) 4.8200000e+13 	 0.00000 	 0.00000 	 !Disproportionation estimate: (Average of: (Average of: (O_pri_rad C/H2/Nd_Csrad)))  O_rad/NonDeO     C/H2/Nd_Csrad     
SPC(42)+SPC(42)=C10bnzn(6)+SPC(119) 1.0260000e+14 	 -0.35000 	 0.00000 	 !Disproportionation estimate: (Average of: (Average of: (C_rad/H/NonDeC C/H2/Nd_Csrad)))  C_rad/H/OneDeC     C/H2/Nd_Csrad     
O2(1)+SPC(42)=HO2J(9)+SPC(119) 9.0330000e+10 	 0.00000 	 0.00000 	 !Disproportionation_O2d exact:   O2d     C/H2/Nd_Csrad     
SPC(117)+SPC(42)=SPC(120)+SPC(119) 4.8200000e+13 	 0.00000 	 0.00000 	 !Disproportionation estimate: (Average of: (Average of: (O_pri_rad C/H2/Nd_Csrad)))  O_rad/NonDeO     C/H2/Nd_Csrad     
SPC(117)=>HO2J(9)+SPC(119) 8.0040557e+10 	 0.56333 	 29.80000 	 !HO2_Elimination_from_PeroxyRadical estimate: (Average of: (Average of: (R2OO_HNd_2H && R2OO_HNd_HNd && R2OO_HNd_NdNd)))  R2OO_HNd_HDe     
END
