#
# Generated from file chem.inp 
# by ck2cti on Wed Jan 14 12:40:09 2009
# 
# chem.inp was created by RMG for an ideal gas at 200 bar with a poor accuracy
# in order to generate a small mechanism. An additional reaction was added 
# to make something called "(DEPOSIT)". This chemistry is inaccurate; the aim
# is to be an example of what a small Cantera mechanism will look like.
#
units(length = "cm", time = "s", quantity = "mol", act_energy = "kcal/mol")


ideal_gas(name = "chem",
      elements = " H  C  O  N  Ne  Ar ",
      species = """ O2(1)  n-undecane(2)  n-tridecane(3)  SPC(4)  n-hexadecane(5)  SPC(6)  n-nonadecane(7)  n-heneicosane(8)  HO2J(9)  C16H25J(42) 
                   C16H25O2J(117)  C16H26O2(119)  H2O2(101)  C16H24(104)  (DEPOST) """,
      reactions = "all",
      initial_state = state(temperature = 300.0,
                        pressure = OneAtm)    )



#-------------------------------------------------------------------------------
#  Species data 
#-------------------------------------------------------------------------------

species(name = "O2(1)",
    atoms = " O:2 ",
    thermo = (
       NASA( [  300.00,   995.00], [  3.545084030E+00,  -1.390033420E-03, 
                6.244308680E-06,  -6.251864280E-09,   2.041197770E-12,
               -1.038961080E+03,   4.647450180E+00] ),
       NASA( [  995.00,  5000.00], [  3.315085470E+00,   1.320064650E-03, 
               -5.327143950E-07,   9.201493710E-11,  -5.758113180E-15,
               -1.081582490E+03,   5.311749950E+00] )
             )
       )

species(name = "n-undecane(2)",
    atoms = " C:11  H:24 ",
    thermo = (
       NASA( [  300.00,   995.00], [  2.650985110E+00,   8.999762250E-02, 
                4.200495940E-05,  -1.101564300E-07,   4.607378910E-11,
               -3.757437380E+04,   2.803224930E+01] ),
       NASA( [  995.00,  5000.00], [  2.656574170E+01,   6.351569690E-02, 
               -2.307526860E-05,   3.795951110E-09,  -2.312034790E-13,
               -4.578185500E+04,  -1.045508760E+02] )
             )
       )

species(name = "n-tridecane(3)",
    atoms = " C:13  H:28 ",
    thermo = (
       NASA( [  300.00,   995.00], [  2.019249300E+00,   1.126225950E-01, 
                3.333658720E-05,  -1.146252800E-07,   4.946357030E-11,
               -4.323937750E+04,   3.486524540E+01] ),
       NASA( [  995.00,  5000.00], [  3.117172750E+01,   7.370910760E-02, 
               -2.600339260E-05,   4.191043460E-09,  -2.517735380E-13,
               -5.291613070E+04,  -1.251060680E+02] )
             )
       )

species(name = "SPC(4)",
    atoms = " C:11  H:10 ",
    thermo = (
       NASA( [  300.00,   995.00], [  2.473844260E+00,   3.599994110E-02, 
                9.464868150E-05,  -1.415127040E-07,   5.390919370E-11,
                1.117050320E+04,   1.910933250E+01] ),
       NASA( [  995.00,  5000.00], [  1.990283470E+01,   3.668746460E-02, 
               -1.304266040E-05,   2.096706740E-09,  -1.253980110E-13,
                4.199430600E+03,  -8.248887640E+01] )
             )
       )

species(name = "n-hexadecane(5)",
    atoms = " C:16  H:34 ",
    thermo = (
       NASA( [  300.00,   995.00], [  1.838204200E+00,   1.446896010E-01, 
                2.247570900E-05,  -1.221398590E-07,   5.444129150E-11,
               -5.194988660E+04,   4.096545110E+01] ),
       NASA( [  995.00,  5000.00], [  3.734883600E+01,   9.157639240E-02, 
               -3.258285920E-05,   5.281033340E-09,  -3.184668260E-13,
               -6.345432930E+04,  -1.524745020E+02] )
             )
       )

species(name = "SPC(6)",
    atoms = " C:16  H:26 ",
    thermo = (
       NASA( [  300.00,   995.00], [  2.181576340E+00,   1.068764750E-01, 
                7.685991070E-05,  -1.672306100E-07,   6.846974410E-11,
               -2.213633260E+04,   3.666240770E+01] ),
       NASA( [  995.00,  5000.00], [  3.514786010E+01,   7.521279390E-02, 
               -2.744924440E-05,   4.521101630E-09,  -2.754277820E-13,
               -3.368995100E+04,  -1.473066320E+02] )
             )
       )

species(name = "n-nonadecane(7)",
    atoms = " C:19  H:40 ",
    thermo = (
       NASA( [  300.00,   995.00], [  1.386294870E+00,   1.743645540E-01, 
                2.570668340E-05,  -1.481121480E-07,   6.646438670E-11,
               -6.046402560E+04,   4.934815370E+01] ),
       NASA( [  995.00,  5000.00], [  4.600535870E+01,   1.056842230E-01, 
               -3.761433290E-05,   6.102842770E-09,  -3.683341260E-13,
               -7.482312200E+04,  -1.932253970E+02] )
             )
       )

species(name = "n-heneicosane(8)",
    atoms = " C:21  H:44 ",
    thermo = (
       NASA( [  300.00,   995.00], [  1.079529600E+00,   1.964213930E-01, 
                1.753810780E-05,  -1.524524690E-07,   6.963049010E-11,
               -6.630587570E+04,   5.397285920E+01] ),
       NASA( [  995.00,  5000.00], [  5.022989620E+01,   1.172347580E-01, 
               -4.156635810E-05,   6.723693610E-09,  -4.049527680E-13,
               -8.194838810E+04,  -2.123568370E+02] )
             )
       )

species(name = "HO2J(9)",
    atoms = " H:1  O:2 ",
    thermo = (
       NASA( [  300.00,   995.00], [  3.558122910E+00,   1.941660510E-03, 
                1.771718800E-06,  -2.029990330E-09,   5.853616420E-13,
               -9.426877540E+02,   6.612542550E+00] ),
       NASA( [  995.00,  5000.00], [  3.094265770E+00,   3.930513580E-03, 
               -1.413622640E-06,   2.295713680E-10,  -1.385456300E-14,
               -8.565238540E+02,   8.817188610E+00] )
             )
       )

species(name = "C16H25J(42)",
    atoms = " C:16  H:25 ",
    thermo = (
       NASA( [  300.00,   995.00], [  1.747144310E+00,   1.148941500E-01, 
                5.065873000E-05,  -1.415875020E-07,   6.014580540E-11,
               -5.164538080E+03,   3.518550890E+01] ),
       NASA( [  995.00,  5000.00], [  3.579208270E+01,   7.175226280E-02, 
               -2.558082840E-05,   4.144485440E-09,  -2.496859230E-13,
               -1.657924510E+04,  -1.522053830E+02] )
             )
       )

species(name = "C16H25O2J(117)",
    atoms = " C:16  H:25  O:2 ",
    thermo = (
       NASA( [  300.00,   995.00], [  1.380100680E+00,   1.249728810E-01, 
                4.863456120E-05,  -1.488769280E-07,   6.416409660E-11,
               -1.579373570E+04,   4.498586300E+01] ),
       NASA( [  995.00,  5000.00], [  4.010176880E+01,   7.168599340E-02, 
               -2.535903670E-05,   4.091861120E-09,  -2.458879840E-13,
               -2.856762780E+04,  -1.670973580E+02] )
             )
       )

species(name = "C16H26O2(119)",
    atoms = " C:16  H:26  O:2 ",
    thermo = (
       NASA( [  300.00,   995.00], [  1.237085900E+00,   1.260751960E-01, 
                6.205717330E-05,  -1.681061400E-07,   7.156795040E-11,
               -3.405043780E+04,   4.503071190E+01] ),
       NASA( [  995.00,  5000.00], [  4.277825760E+01,   7.158314500E-02, 
               -2.538892220E-05,   4.105873300E-09,  -2.471018250E-13,
               -4.788687840E+04,  -1.831606790E+02] )
             )
       )

species(name = "H2O2(101)",
    atoms = " H:2  O:2 ",
    thermo = (
       NASA( [  300.00,   995.00], [  3.329557260E+00,   5.868416590E-03, 
                2.365653160E-06,  -6.763834570E-09,   2.890259430E-12,
               -1.766743050E+04,   7.258145190E+00] ),
       NASA( [  995.00,  5000.00], [  5.042213030E+00,   3.560474120E-03, 
               -1.054602910E-06,   1.502218340E-10,  -8.254763560E-15,
               -1.823484100E+04,  -2.134448190E+00] )
             )
       )

species(name = "C16H24(104)",
    atoms = " C:16  H:24 ",
    thermo = (
       NASA( [  300.00,   995.00], [  1.780905100E+00,   1.041335250E-01, 
                7.472502970E-05,  -1.652298320E-07,   6.809861700E-11,
               -9.037684320E+03,   3.782814470E+01] ),
       NASA( [  995.00,  5000.00], [  3.607204330E+01,   6.807422800E-02, 
               -2.436011000E-05,   3.961347170E-09,  -2.392764140E-13,
               -2.090101030E+04,  -1.527573660E+02] )
             )
       )

species(name = "(DEPOST)",
    atoms = " C:32  H:52  O:4 ",
    thermo = (
       NASA( [  300.00,   995.00], [  1.237085900E+00,   1.260751960E-01, 
                6.205717330E-05,  -1.681061400E-07,   7.156795040E-11,
               -3.405043780E+04,   4.503071190E+01] ),
       NASA( [  995.00,  5000.00], [  4.277825760E+01,   7.158314500E-02, 
               -2.538892220E-05,   4.105873300E-09,  -2.471018250E-13,
               -4.788687840E+04,  -1.831606790E+02] )
             )
       )



#-------------------------------------------------------------------------------
#  Reaction data 
#-------------------------------------------------------------------------------

#  Reaction 1
# Disproportionation estimate:   O_Orad     C_rad/H/OneDeC      
reaction(  "HO2J(9) + C16H25J(42) <=> O2(1) + SPC(6)",  [3.00000E+11, 0, 0])

#  Reaction 2
# R_Addition_MultipleBond estimate:   O2d     C_rad/H/OneDeC      
reaction(  "O2(1) + C16H25J(42) <=> C16H25O2J(117)",  [7.54000E+12, 0, 0])

#  Reaction 3
# R_Recombination estimate:   O_rad/NonDe     C_rad/H/OneDeC      
reaction(  "HO2J(9) + C16H25J(42) <=> C16H26O2(119)",  [1.49948E+13, -0.15, 0.29167])

#  Reaction 4
# Disproportionation estimate:   O_rad/NonDeO     O_Orad      
reaction(  "C16H25O2J(117) + HO2J(9) <=> C16H26O2(119) + O2(1)",  [1.75000E+10, 0, -3.275])

#  Reaction 5
# H_Abstraction estimate:   C/H2/OneDeC     O_rad/NonDeO      
reaction(  "SPC(6) + C16H25O2J(117) <=> C16H25J(42) + C16H26O2(119)",  [1.68092E+09, 1, 5.105])

#  Reaction 6
# Disproportionation estimate:   O_rad/NonDeO     O_Orad      
reaction(  "HO2J(9) + HO2J(9) <=> H2O2(101) + O2(1)",  [1.75000E+10, 0, -3.275])

#  Reaction 7
# H_Abstraction estimate:   C_rad/H/OneDeC     O/H/NonDeO      
reaction(  "C16H25J(42) + H2O2(101) <=> SPC(6) + HO2J(9)",  [2.97344E+03, 2.386, 9.69])

#  Reaction 8
# H_Abstraction estimate:   O_rad/NonDeO     O/H/NonDeO      
reaction(  "C16H25O2J(117) + H2O2(101) <=> C16H26O2(119) + HO2J(9)",  [3.46000E+01, 3.4, -1.14])

#  Reaction 9
# Disproportionation estimate:   O_rad/NonDeO     C/H2/Nd_Csrad      
reaction(  "HO2J(9) + C16H25J(42) <=> H2O2(101) + C16H24(104)",  [4.82000E+13, 0, 0])

#  Reaction 10
# Disproportionation estimate:   C_rad/H/OneDeC     C/H2/Nd_Csrad      
reaction(  "C16H25J(42) + C16H25J(42) <=> SPC(6) + C16H24(104)",  [1.02600E+14, -0.35, 0])

#  Reaction 11
# Disproportionation_O2d exact:   O2d     C/H2/Nd_Csrad      
reaction(  "O2(1) + C16H25J(42) <=> HO2J(9) + C16H24(104)",  [3.61600E+11, 0, 0])

#  Reaction 12
# Disproportionation estimate:   O_rad/NonDeO     C/H2/Nd_Csrad      
reaction(  "C16H25O2J(117) + C16H25J(42) <=> C16H26O2(119) + C16H24(104)",  [4.82000E+13, 0, 0])

#  Reaction 13
# HO2_Elimination_from_PeroxyRadical estimate:   R2OO_HNd_HDe      
reaction(  "C16H25O2J(117) => HO2J(9) + C16H24(104)",  [8.00406E+10, 0.56333, 29.8])

#  Reaction 14
#  MADE UP BY RWEST 
reaction(  "C16H26O2(119) + C16H26O2(119) => (DEPOST)",  [1.00000E+02, 0, 0])
