!  This chemkin file was generated by RMG - Reaction Mechanism Generator (http://rmg.mit.edu)
!  The java code was compiled by ant at:
!    2010-06-03T15:58:41
!  The git repository was on the branch:
!    autoxidation
!  And at the commit with the hash:
!    68c75c9d5ffbc21d425d374b8d224762a9598ad3
!
!  For details visit:
!   http://github.com/GreenGroup/RMG-Java/tree/68c75c
!To see changes since then visit:
!   http://github.com/GreenGroup/RMG-Java/compare/68c75c...master

ELEMENTS H C O N Ne Ar He Si S END
SPECIES
	SPC(1)	!n-decylbenzene
	SPC(2)	!n-undecane
	SPC(3)	!n-tridecane
	SPC(4)	!naphthalene
	SPC(5)	!n-hexadecane
	O2(6)
	SPC(7)	!n-nonadecane
	SPC(8)	!n-heneicosane
	HO2J(43)
	SPC(17)	!C16H25J
	C11H9J(66)
	SPC(117)	!C16H25O2J
	SPC(120)	!C16H26O2
	SPC(136)	!C11H9O2J
	SPC(137)	!C11H10O2
	SPC(119)	!C16H24
	H2O2(101)
	SPC(218)	!C16H23J
	SPC(254)	!C16H23O2J
	SPC(268)	!C16H24O2
	SPC(261)	!C16H23O2J
	SPC(271)	!C16H24O2
	SPC(395)	!C16H23O2J
	SPC(439)	!C16H23O4J
	SPC(455)	!C16H24O4
	SPC(171)	!C16H25OJ
	H2O(190)
	SPC(173)	!C16H26O
	SPC(446)	!C16H23O4J
	SPC(458)	!C16H24O4
	SPC(664)	!C16H23O4J
	HOJ(103)
	SPC(695)	!C16H22O3
	SPC(70)	!C16H33J
	SPC(850)	!C16H33O2J
	SPC(854)	!C16H34O2
	SPC(74)	!C16H33J
	SPC(948)	!C16H33O2J
	SPC(953)	!C16H34O2
	SPC(525)	!C16H23O4J
	SPC(1070)	!C16H22O3
	SPC(1121)	!C16H23O5J
	SPC(75)	!C16H33J
	SPC(1212)	!C16H33O2J
	SPC(1216)	!C16H34O2
	SPC(804)	!C16H21O3J
	SPC(1294)	!C16H20O2
	SPC(71)	!C16H33J
	SPC(1412)	!C16H33O2J
	SPC(1416)	!C16H34O2
	SPC(76)	!C16H33J
	SPC(1504)	!C16H33O2J
	SPC(1508)	!C16H34O2
	SPC(1373)	!C16H19O2J
	SPC(1603)	!C16H19O4J
	SPC(1620)	!C16H20O4
	SPC(73)	!C16H33J
	SPC(1752)	!C16H33O2J
	SPC(1756)	!C16H34O2
	SPC(533)	!C16H23O4J
	SPC(72)	!C16H33J
	SPC(1876)	!C16H33O2J
	SPC(1879)	!C16H34O2
	SPC(801)	!C16H21O3J
	SPC(1993)	!C16H20O2
	SPC(2040)	!C16H21O4J
	SPC(1108)	!C16H21O3J
	SPC(52)	!C13H27J
	SPC(2176)	!C13H27O2J
	SPC(2243)	!C13H28O2
END
THERMO ALL
   300.000  1000.000  5000.000
! The first four sets of polynomial coefficients (Ar, N2, Ne, He) are from         
! THIRD MILLENIUM IDEAL GAS AND CONDENSED PHASE THERMOCHEMICAL DATABASE FOR     
! COMBUSTION WITH UPDATES FROM ACTIVE THERMOCHENICAL TABLES                     
! Authors: Alexander Burcat and Branko Ruscic                                   
!                                                                               
! The rest of the species are estimated by RMG (http://rmg.mit.edu/)            
Ar                L 6/88Ar  1               G   200.000  6000.000 1000.        1
 0.25000000E+01 0.00000000E+00 0.00000000E+00 0.00000000E+00 0.00000000E+00    2
-0.74537500E+03 0.43796749E+01 0.25000000E+01 0.00000000E+00 0.00000000E+00    3
 0.00000000E+00 0.00000000E+00-0.74537500E+03 0.43796749E+01                   4
N2                G 8/02N   2               G   200.000  6000.000 1000.        1
 2.95257637E+00 1.39690040E-03-4.92631603E-07 7.86010195E-11-4.60755204E-15    2
-9.23948688E+02 5.87188762E+00 3.53100528E+00-1.23660988E-04-5.02999433E-07    3
 2.43530612E-09-1.40881235E-12-1.04697628E+03 2.96747038E+00                   4
Ne                L10/90Ne  1               G    200.0   6000.00  1000.0       1
 0.25000000E+01 0.00000000E+00 0.00000000E+00 0.00000000E+00 0.00000000E+00    2
-0.74537500E+03 0.33553227E+01 0.25000000E+01 0.00000000E+00 0.00000000E+00    3
 0.00000000E+00 0.00000000E+00-0.74537498E+03 0.33553227E+01                   4
He REF ELEMENT          He  1               G   200.000  6000.000 1000.        1
 2.50000000E+00 0.00000000E+00 0.00000000E+00 0.00000000E+00 0.00000000E+00    2
-7.45375000E+02 9.28723974E-01 2.50000000E+00 0.00000000E+00 0.00000000E+00    3
 0.00000000E+00 0.00000000E+00-7.45375000E+02 9.28723974E-01 0.00000000E+00    4

!Estimated by RMG using Group Additivity
SPC(1)                  C  16H  26          G   300.000  5000.000   995.043    1
 3.57646840E+01 7.38090261E-02-2.64824772E-05 4.28846807E-09-2.57946794E-13    2
-5.14393134E+04-2.03458432E+02 2.20795129E+00 1.03781096E-01 8.65048752E-05    3
-1.77383310E-07 7.20111554E-11-3.95669421E+04-1.56324963E+01                   4

!Estimated by RMG using Group Additivity
SPC(2)                  C  11H  24          G   300.000  5000.000   995.043    1
 2.60061484E+01 6.38892438E-02-2.28407483E-05 3.69027154E-09-2.21693293E-13    2
-5.98122669E+04-1.44372355E+02 2.80660224E+00 8.83404413E-02 4.40278881E-05    3
-1.10607521E-07 4.59558203E-11-5.17889195E+04-1.54461970E+01                   4

!Estimated by RMG using Group Additivity
SPC(3)                  C  13H  28          G   300.000  5000.000   995.043    1
 3.07053495E+01 7.49686651E-02-2.68781610E-05 4.35126880E-09-2.61768180E-13    2
-6.86232867E+04-1.70063527E+02 2.58151103E+00 1.08998739E-01 4.09515605E-05    3
-1.20908911E-07 5.12624648E-11-5.91141937E+04-1.48635330E+01                   4

!Estimated by RMG using Group Additivity
SPC(4)                  C  11H  10          G   300.000  5000.000   995.043    1
 1.99543052E+01 3.65535524E-02-1.29116584E-05 2.06136391E-09-1.22616726E-13    2
-8.90071304E+03-1.22132762E+02 2.91765803E+00 3.26525402E-02 1.02090605E-04    3
-1.48098918E-07 5.59730704E-11-1.92671435E+03-2.20183862E+01                   4

!Estimated by RMG using Group Additivity
SPC(5)                  C  16H  34          G   300.000  5000.000   995.043    1
 3.77541511E+01 9.15877972E-02-3.29342801E-05 5.34276469E-09-3.21880512E-13    2
-8.17208370E+04-2.08201027E+02 2.24387421E+00 1.39986184E-01 3.63370692E-05    3
-1.36360995E-07 5.92224316E-11-6.99831259E+04-1.35902780E+01                   4

!Estimated by RMG using Group Additivity
O2(6)                   C   0H   0O   2     G   300.000  5000.000   995.043    1
 3.31508547E+00 1.32006465E-03-5.32714395E-07 9.20149371E-11-5.75811318E-15    2
-4.53677493E+03-5.04042637E+00 3.54508403E+00-1.39003342E-03 6.24430868E-06    3
-6.25186428E-09 2.04119777E-12-4.49415352E+03-5.70472615E+00                   4

!Estimated by RMG using Group Additivity
SPC(7)                  C  19H  40          G   300.000  5000.000   995.043    1
 4.48029527E+01 1.08206929E-01-3.89903992E-05 6.33426058E-09-3.81992844E-13    2
-9.47061957E+04-2.45962045E+02 1.90623740E+00 1.70973630E-01 3.17225778E-05    3
-1.51813080E-07 6.71823984E-11-8.07398663E+04-1.19405407E+01                   4

!Estimated by RMG using Group Additivity
SPC(8)                  C  21H  44          G   300.000  5000.000   995.043    1
 4.95021538E+01 1.19286351E-01-4.30278119E-05 6.99525783E-09-4.22067732E-13    2
-1.03312543E+05-2.70966399E+02 1.68114619E+00 1.91631927E-01 2.86462502E-05    3
-1.62114469E-07 7.24890430E-11-8.78604685E+04-1.06710580E+01                   4

!Estimated by RMG using Group Additivity
HO2J(43)                C   0H   1O   2     G   300.000  5000.000   995.043    1
 3.24380419E+00 3.66065214E-03-1.26589715E-06 1.97776743E-10-1.15806423E-14    2
-7.07850170E+03-1.11026205E+01 4.03383318E+00-1.43110813E-03 9.29796195E-06    3
-8.81491966E-09 2.73898818E-12-7.14087659E+03-1.44335268E+01                   4

!Estimated by RMG using Group Additivity
SPC(17)                 C  16H  25          G   300.000  5000.000   995.043    1
 3.52276567E+01 7.24578819E-02-2.57178347E-05 4.12778059E-09-2.46719165E-13    2
-3.39010384E+04-2.01840008E+02 2.04608900E+00 1.12496734E-01 5.46452407E-05    3
-1.43995589E-07 6.06563026E-11-2.26763503E+04-1.87015467E+01                   4

!Estimated by RMG using Group Additivity
C11H9J(66)              C  11H   9          G   300.000  5000.000   995.043    1
 2.09447403E+01 3.31035326E-02-1.09946431E-05 1.66872551E-09-9.55340668E-14    2
 9.31275374E+03-1.28696992E+02 2.40968256E+00 3.92209220E-02 8.28829481E-05    3
-1.30303477E-07 5.04167544E-11 1.63871794E+04-2.23548719E+01                   4

!Estimated by RMG using Group Additivity
SPC(117)                C  16H  25O   2     G   300.000  5000.000   995.043    1
 3.93281701E+01 7.33811309E-02-2.62825804E-05 4.24850316E-09-2.55207399E-13    2
-4.68259952E+04-2.17939508E+02 1.91369136E+00 1.21552533E-01 5.52124514E-05    3
-1.53605444E-07 6.53467977E-11-3.43191421E+04-1.21908809E+01                   4

!Estimated by RMG using Group Additivity
SPC(120)                C  16H  26O   2     G   300.000  5000.000   995.043    1
 4.13730003E+01 7.42453469E-02-2.67793704E-05 4.34872225E-09-2.62013537E-13    2
-6.59036823E+04-2.30566076E+02 1.86374216E+00 1.23303633E-01 6.47359727E-05    3
-1.67827944E-07 7.08502949E-11-5.26069769E+04-1.28476021E+01                   4

!Estimated by RMG using Group Additivity
SPC(136)                C  11H   9O   2     G   300.000  5000.000   995.043    1
 2.24632134E+01 3.73922606E-02-1.33627224E-05 2.14958613E-09-1.28559777E-13    2
-1.69183084E+03-1.29848546E+02 2.82206171E+00 5.33097506E-02 5.76709512E-05    3
-1.09110308E-07 4.38213306E-11 5.33768022E+03-1.95074442E+01                   4

!Estimated by RMG using Group Additivity
SPC(137)                C  11H  10O   2     G   300.000  5000.000   995.043    1
 2.45080436E+01 3.82564765E-02-1.38595123E-05 2.24980521E-09-1.35365915E-13    2
-2.07695179E+04-1.42475114E+02 2.77211252E+00 5.50608512E-02 6.71944726E-05    3
-1.23332808E-07 4.93248278E-11-1.29501545E+04-2.01641654E+01                   4

!Estimated by RMG using Group Additivity
SPC(119)                C  16H  24          G   300.000  5000.000   995.043    1
 3.53752816E+01 6.91278701E-02-2.46548810E-05 3.97530308E-09-2.38388072E-13    2
-3.73516892E+04-1.99053115E+02 2.12163523E+00 1.02181435E-01 7.72052468E-05    3
-1.65898538E-07 6.79754192E-11-2.57525025E+04-1.37575311E+01                   4

!Estimated by RMG using Group Additivity
H2O2(101)               C   0H   2O   2     G   300.000  5000.000   995.043    1
 5.16924380E+00 3.40955858E-03-1.00163571E-06 1.37410746E-10-7.24183505E-15    2
-2.44517280E+04-2.19908544E+01 3.81742358E+00 2.54032760E-03 9.81098709E-06    3
-1.34733297E-08 5.01192779E-12-2.38706487E+04-1.39077705E+01                   4

!Estimated by RMG using Group Additivity
SPC(218)                C  16H  23          G   300.000  5000.000   995.043    1
 3.50755169E+01 6.73924024E-02-2.41111336E-05 3.89325656E-09-2.33649931E-13    2
-2.03408388E+04-1.98786120E+02 2.14952896E+00 9.83690859E-02 8.20250918E-05    3
-1.69612826E-07 6.90855238E-11-8.76924860E+03-1.48806822E+01                   4

!Estimated by RMG using Group Additivity
SPC(254)                C  16H  23O   2     G   300.000  5000.000   995.043    1
 3.99191980E+01 6.73849980E-02-2.40798120E-05 3.88835883E-09-2.33426332E-13    2
-3.32777383E+04-2.19792836E+02 1.82753153E+00 1.22523628E-01 4.05131149E-05    3
-1.38353997E-07 6.03690509E-11-2.08462691E+04-1.18365201E+01                   4

!Estimated by RMG using Group Additivity
SPC(268)                C  16H  24O   2     G   300.000  5000.000   995.043    1
 4.19640282E+01 6.82492139E-02-2.45766020E-05 3.98857791E-09-2.40232471E-13    2
-5.23554254E+04-2.32419404E+02 1.77758233E+00 1.24274729E-01 5.00366362E-05    3
-1.52576497E-07 6.58725482E-11-3.91341038E+04-1.24932412E+01                   4

!Estimated by RMG using Group Additivity
SPC(261)                C  16H  23O   2     G   300.000  5000.000   995.043    1
 3.81920832E+01 6.96739845E-02-2.50982592E-05 4.07324407E-09-2.45338692E-13    2
-3.26549091E+04-2.10435111E+02 2.05036700E+00 1.15017460E-01 5.72099610E-05    3
-1.52014183E-07 6.43321208E-11-2.05146394E+04-1.13897880E+01                   4

!Estimated by RMG using Group Additivity
SPC(271)                C  16H  24O   2     G   300.000  5000.000   995.043    1
 4.02369134E+01 7.05382004E-02-2.55950492E-05 4.17346315E-09-2.52144831E-13    2
-5.17325962E+04-2.23061679E+02 2.00041780E+00 1.16768561E-01 6.67334823E-05    3
-1.66236683E-07 6.98356181E-11-3.88024741E+04-1.20465092E+01                   4

!Estimated by RMG using Group Additivity
SPC(395)                C  16H  23O   2     G   300.000  5000.000   995.043    1
 3.99371487E+01 6.88027327E-02-2.50513018E-05 4.09141663E-09-2.47406689E-13    2
-3.47217458E+04-2.22794684E+02 2.02831153E+00 1.12956212E-01 7.15533274E-05    3
-1.69950970E-07 7.09457228E-11-2.18192203E+04-1.31696603E+01                   4

!Estimated by RMG using Group Additivity
SPC(439)                C  16H  23O   4     G   300.000  5000.000   995.043    1
 4.47808298E+01 6.87953283E-02-2.50199802E-05 4.08651891E-09-2.47183091E-13    2
-4.76168532E+04-2.43661157E+02 1.70631410E+00 1.37110754E-01 3.00413504E-05    3
-1.38692142E-07 6.22292499E-11-3.38544487E+04-9.98525632E+00                   4

!Estimated by RMG using Group Additivity
SPC(455)                C  16H  24O   4     G   300.000  5000.000   995.043    1
 4.68256600E+01 6.96595442E-02-2.55167702E-05 4.18673799E-09-2.53989229E-13    2
-6.66945403E+04-2.56287725E+02 1.65636490E+00 1.38861855E-01 3.95648718E-05    3
-1.52914642E-07 6.77327471E-11-5.21422834E+04-1.06419775E+01                   4

!Estimated by RMG using Group Additivity
SPC(171)                C  16H  25O   1     G   300.000  5000.000   995.043    1
 3.83939066E+01 7.16448666E-02-2.58326002E-05 4.19724495E-09-2.53013730E-13    2
-4.58300775E+04-2.14090714E+02 2.07518242E+00 1.08427505E-01 8.33587361E-05    3
-1.79266561E-07 7.35555550E-11-3.31955470E+04-1.18857020E+01                   4

!Estimated by RMG using Group Additivity
H2O(190)                C   0H   2O   1     G   300.000  5000.000   995.043    1
 2.86179658E+00 2.74178803E-03-6.99032999E-07 8.37398165E-11-3.87473619E-15    2
-3.41346800E+04-7.23206582E+00 3.96439133E+00-3.60696243E-04 1.97313961E-06    3
-3.63433133E-10-2.28985043E-13-3.44199415E+04-1.28767874E+01                   4

!Estimated by RMG using Group Additivity
SPC(173)                C  16H  26O   1     G   300.000  5000.000   995.043    1
 3.84625522E+01 7.34736516E-02-2.63944698E-05 4.27859956E-09-2.57529864E-13    2
-7.20947773E+04-2.14315636E+02 2.03878384E+00 1.10033612E-01 8.41047896E-05    3
-1.80712890E-07 7.40985212E-11-5.94074136E+04-1.14439309E+01                   4

!Estimated by RMG using Group Additivity
SPC(446)                C  16H  23O   4     G   300.000  5000.000   995.043    1
 4.54573551E+01 6.77388712E-02-2.44350239E-05 3.96880895E-09-2.39144770E-13    2
-4.74723586E+04-2.47654542E+02 1.53935287E+00 1.35999225E-01 3.59038169E-05    3
-1.45825966E-07 6.48744513E-11-3.33715056E+04-9.05631135E+00                   4

!Estimated by RMG using Group Additivity
SPC(458)                C  16H  24O   4     G   300.000  5000.000   995.043    1
 4.75021853E+01 6.86030871E-02-2.49318138E-05 4.06902803E-09-2.45950908E-13    2
-6.65500457E+04-2.60281110E+02 1.48940368E+00 1.37750325E-01 4.54273383E-05    3
-1.60048466E-07 7.03779485E-11-5.16593403E+04-9.71303254E+00                   4

!Estimated by RMG using Group Additivity
SPC(664)                C  16H  23O   4     G   300.000  5000.000   995.043    1
 4.63362300E+01 6.77429577E-02-2.44138312E-05 3.95621342E-09-2.37901737E-13    2
-4.97258415E+04-2.54834626E+02 1.40720644E+00 1.35083887E-01 4.48237436E-05    3
-1.56834043E-07 6.89028875E-11-3.51770682E+04-1.01240881E+01                   4

!Estimated by RMG using Group Additivity
HOJ(103)                C   0H   1O   1     G   300.000  5000.000   995.043    1
 2.93410038E+00 9.26769262E-04-1.74799016E-07 1.18655954E-11-6.70150636E-17    2
-2.87896182E+02-7.70895574E+00 3.47209746E+00 1.42767582E-03-4.94523077E-06    3
 5.89821920E-09-2.15489282E-12-5.26825856E+02-1.09644100E+01                   4

!Estimated by RMG using Group Additivity
SPC(695)                C  16H  22O   3     G   300.000  5000.000   995.043    1
 4.52612366E+01 6.29544701E-02-2.16336633E-05 3.38751763E-09-1.98722287E-13    2
-6.58926701E+04-2.59385309E+02 8.62064249E-01 1.00265811E-01 1.34930631E-04    3
-2.44088893E-07 9.78012432E-11-5.00681566E+04-1.02880336E+01                   4

!Estimated by RMG using Group Additivity
SPC(70)                 C  16H  33          G   300.000  5000.000   995.043    1
 3.49569847E+01 9.23858468E-02-3.33772634E-05 5.42961810E-09-3.27729834E-13    2
-5.71810224E+04-1.88238352E+02 2.51568035E+00 1.40299401E-01 1.87580656E-05    3
-1.12822612E-07 5.03169317E-11-4.66408129E+04-1.13667349E+01                   4

!Estimated by RMG using Group Additivity
SPC(850)                C  16H  33O   2     G   300.000  5000.000   995.043    1
 4.14318769E+01 9.07202634E-02-3.23849758E-05 5.22505235E-09-3.13607743E-13    2
-7.77912145E+04-2.22926175E+02 1.83967954E+00 1.61474289E-01-5.77850249E-06    3
-1.01887743E-07 4.90308977E-11-6.55355563E+04-1.01220878E+01                   4

!Estimated by RMG using Group Additivity
SPC(854)                C  16H  34O   2     G   300.000  5000.000   995.043    1
 4.34767071E+01 9.15844793E-02-3.28817658E-05 5.32527143E-09-3.20413882E-13    2
-9.68689016E+04-2.35552743E+02 1.78973035E+00 1.63225389E-01 3.74501887E-06    3
-1.16110243E-07 5.45343950E-11-8.38233911E+04-1.07788090E+01                   4

!Estimated by RMG using Group Additivity
SPC(74)                 C  16H  33          G   300.000  5000.000   995.043    1
 3.43626356E+01 9.31303128E-02-3.37845085E-05 5.51162403E-09-3.33336390E-13    2
-5.69566208E+04-1.84990713E+02 2.64206928E+00 1.40158140E-01 1.66536176E-05    3
-1.09571821E-07 4.90047315E-11-4.66594290E+04-1.20930628E+01                   4

!Estimated by RMG using Group Additivity
SPC(948)                C  16H  33O   2     G   300.000  5000.000   995.043    1
 4.14318769E+01 9.07202634E-02-3.23849758E-05 5.22505235E-09-3.13607743E-13    2
-7.77912145E+04-2.22926175E+02 1.83967954E+00 1.61474289E-01-5.77850249E-06    3
-1.01887743E-07 4.90308977E-11-6.55355563E+04-1.01220878E+01                   4

!Estimated by RMG using Group Additivity
SPC(953)                C  16H  34O   2     G   300.000  5000.000   995.043    1
 4.34767071E+01 9.15844793E-02-3.28817658E-05 5.32527143E-09-3.20413882E-13    2
-9.68689016E+04-2.35552743E+02 1.78973035E+00 1.63225389E-01 3.74501887E-06    3
-1.16110243E-07 5.45343950E-11-8.38233911E+04-1.07788090E+01                   4

!Estimated by RMG using Group Additivity
SPC(525)                C  16H  23O   4     G   300.000  5000.000   995.043    1
 4.45729765E+01 6.96258208E-02-2.53340590E-05 4.13522485E-09-2.50009074E-13    2
-4.79847493E+04-2.43524504E+02 1.70928119E+00 1.48937613E-01-4.70373420E-06    3
-1.03612924E-07 5.04197290E-11-3.48506356E+04-1.38109267E+01                   4

!Estimated by RMG using Group Additivity
SPC(1070)               C  16H  22O   3     G   300.000  5000.000   995.043    1
 4.22314971E+01 6.65859049E-02-2.46886065E-05 4.08635027E-09-2.49395422E-13    2
-6.74455586E+04-2.29585891E+02 2.13601449E+00 1.26004508E-01 3.91434245E-05    3
-1.41459147E-07 6.21409634E-11-5.44284184E+04-1.10331515E+01                   4

!Estimated by RMG using Group Additivity
SPC(1121)               C  16H  23O   5     G   300.000  5000.000   995.043    1
 4.79096077E+01 6.89652526E-02-2.52266893E-05 4.13435378E-09-2.50629125E-13    2
-6.18882730E+04-2.60781105E+02 1.55260607E+00 1.51216875E-01 7.70940580E-06    3
-1.23072425E-07 5.81254468E-11-4.75093014E+04-1.14697113E+01                   4

!Estimated by RMG using Group Additivity
SPC(75)                 C  16H  33          G   300.000  5000.000   995.043    1
 3.43626356E+01 9.31303128E-02-3.37845085E-05 5.51162403E-09-3.33336390E-13    2
-5.69566208E+04-1.84990713E+02 2.64206928E+00 1.40158140E-01 1.66536176E-05    3
-1.09571821E-07 4.90047315E-11-4.66594290E+04-1.20930628E+01                   4

!Estimated by RMG using Group Additivity
SPC(1212)               C  16H  33O   2     G   300.000  5000.000   995.043    1
 4.14318769E+01 9.07202634E-02-3.23849758E-05 5.22505235E-09-3.13607743E-13    2
-7.77912145E+04-2.22926175E+02 1.83967954E+00 1.61474289E-01-5.77850249E-06    3
-1.01887743E-07 4.90308977E-11-6.55355563E+04-1.01220878E+01                   4

!Estimated by RMG using Group Additivity
SPC(1216)               C  16H  34O   2     G   300.000  5000.000   995.043    1
 4.34767071E+01 9.15844793E-02-3.28817658E-05 5.32527143E-09-3.20413882E-13    2
-9.68689016E+04-2.35552743E+02 1.78973035E+00 1.63225389E-01 3.74501887E-06    3
-1.16110243E-07 5.45343950E-11-8.38233911E+04-1.07788090E+01                   4

!Estimated by RMG using Group Additivity
SPC(804)                C  16H  21O   3     G   300.000  5000.000   995.043    1
 3.96501109E+01 6.76989086E-02-2.36886710E-05 3.75259824E-09-2.21973702E-13    2
-4.84596460E+04-2.25964731E+02 1.42462920E+00 9.68399624E-02 1.20096450E-04    3
-2.18348131E-07 8.71780781E-11-3.46878929E+04-1.07625084E+01                   4

!Estimated by RMG using Group Additivity
SPC(1294)               C  16H  20O   2     G   300.000  5000.000   995.043    1
 4.03010607E+01 6.13346075E-02-2.11745306E-05 3.32244013E-09-1.95128196E-13    2
-6.56999310E+04-2.47645999E+02 1.22831314E+00 8.13887933E-02 1.55141378E-04    3
-2.53191127E-07 9.90211088E-11-5.11411016E+04-2.52526978E+01                   4

!Estimated by RMG using Group Additivity
SPC(71)                 C  16H  33          G   300.000  5000.000   995.043    1
 3.43626356E+01 9.31303128E-02-3.37845085E-05 5.51162403E-09-3.33336390E-13    2
-5.69566208E+04-1.84990713E+02 2.64206928E+00 1.40158140E-01 1.66536176E-05    3
-1.09571821E-07 4.90047315E-11-4.66594290E+04-1.20930628E+01                   4

!Estimated by RMG using Group Additivity
SPC(1412)               C  16H  33O   2     G   300.000  5000.000   995.043    1
 4.14318769E+01 9.07202634E-02-3.23849758E-05 5.22505235E-09-3.13607743E-13    2
-7.77912145E+04-2.22926175E+02 1.83967954E+00 1.61474289E-01-5.77850249E-06    3
-1.01887743E-07 4.90308977E-11-6.55355563E+04-1.01220878E+01                   4

!Estimated by RMG using Group Additivity
SPC(1416)               C  16H  34O   2     G   300.000  5000.000   995.043    1
 4.34767071E+01 9.15844793E-02-3.28817658E-05 5.32527143E-09-3.20413882E-13    2
-9.68689016E+04-2.35552743E+02 1.78973035E+00 1.63225389E-01 3.74501887E-06    3
-1.16110243E-07 5.45343950E-11-8.38233911E+04-1.07788090E+01                   4

!Estimated by RMG using Group Additivity
SPC(76)                 C  16H  33          G   300.000  5000.000   995.043    1
 3.43626356E+01 9.31303128E-02-3.37845085E-05 5.51162403E-09-3.33336390E-13    2
-5.69566208E+04-1.84990713E+02 2.64206928E+00 1.40158140E-01 1.66536176E-05    3
-1.09571821E-07 4.90047315E-11-4.66594290E+04-1.20930628E+01                   4

!Estimated by RMG using Group Additivity
SPC(1504)               C  16H  33O   2     G   300.000  5000.000   995.043    1
 4.14318769E+01 9.07202634E-02-3.23849758E-05 5.22505235E-09-3.13607743E-13    2
-7.77912145E+04-2.22926175E+02 1.83967954E+00 1.61474289E-01-5.77850249E-06    3
-1.01887743E-07 4.90308977E-11-6.55355563E+04-1.01220878E+01                   4

!Estimated by RMG using Group Additivity
SPC(1508)               C  16H  34O   2     G   300.000  5000.000   995.043    1
 4.34767071E+01 9.15844793E-02-3.28817658E-05 5.32527143E-09-3.20413882E-13    2
-9.68689016E+04-2.35552743E+02 1.78973035E+00 1.63225389E-01 3.74501887E-06    3
-1.16110243E-07 5.45343950E-11-8.38233911E+04-1.07788090E+01                   4

!Estimated by RMG using Group Additivity
SPC(1373)               C  16H  19O   2     G   300.000  5000.000   995.043    1
 4.00012960E+01 5.95991398E-02-2.06307831E-05 3.24039361E-09-1.90390054E-13    2
-4.86890806E+04-2.47379004E+02 1.25620687E+00 7.75764440E-02 1.59961223E-04    3
-2.56905414E-07 1.00131213E-10-3.41578477E+04-2.63758489E+01                   4

!Estimated by RMG using Group Additivity
SPC(1603)               C  16H  19O   4     G   300.000  5000.000   995.043    1
 4.48449770E+01 5.95917354E-02-2.05994615E-05 3.23549589E-09-1.90166456E-13    2
-6.16252228E+04-2.68383178E+02 9.34209437E-01 1.01730986E-01 1.18449246E-04    3
-2.25646585E-07 9.14147406E-11-4.62341109E+04-2.33291457E+01                   4

!Estimated by RMG using Group Additivity
SPC(1620)               C  16H  20O   4     G   300.000  5000.000   995.043    1
 4.68898072E+01 6.04559514E-02-2.10962515E-05 3.33571497E-09-1.96972595E-13    2
-8.07029099E+04-2.81009746E+02 8.84260239E-01 1.03482087E-01 1.27972767E-04    3
-2.39869085E-07 9.69182379E-11-6.45219456E+04-2.39858669E+01                   4

!Estimated by RMG using Group Additivity
SPC(73)                 C  16H  33          G   300.000  5000.000   995.043    1
 3.43626356E+01 9.31303128E-02-3.37845085E-05 5.51162403E-09-3.33336390E-13    2
-5.69566208E+04-1.84990713E+02 2.64206928E+00 1.40158140E-01 1.66536176E-05    3
-1.09571821E-07 4.90047315E-11-4.66594290E+04-1.20930628E+01                   4

!Estimated by RMG using Group Additivity
SPC(1752)               C  16H  33O   2     G   300.000  5000.000   995.043    1
 4.14318769E+01 9.07202634E-02-3.23849758E-05 5.22505235E-09-3.13607743E-13    2
-7.77912145E+04-2.22926175E+02 1.83967954E+00 1.61474289E-01-5.77850249E-06    3
-1.01887743E-07 4.90308977E-11-6.55355563E+04-1.01220878E+01                   4

!Estimated by RMG using Group Additivity
SPC(1756)               C  16H  34O   2     G   300.000  5000.000   995.043    1
 4.34767071E+01 9.15844793E-02-3.28817658E-05 5.32527143E-09-3.20413882E-13    2
-9.68689016E+04-2.35552743E+02 1.78973035E+00 1.63225389E-01 3.74501887E-06    3
-1.16110243E-07 5.45343950E-11-8.38233911E+04-1.07788090E+01                   4

!Estimated by RMG using Group Additivity
SPC(533)                C  16H  23O   4     G   300.000  5000.000   995.043    1
 4.47808298E+01 6.87953283E-02-2.50199802E-05 4.08651891E-09-2.47183091E-13    2
-4.76168532E+04-2.43661157E+02 1.70631410E+00 1.37110754E-01 3.00413504E-05    3
-1.38692142E-07 6.22292499E-11-3.38544487E+04-9.98525632E+00                   4

!Estimated by RMG using Group Additivity
SPC(72)                 C  16H  33          G   300.000  5000.000   995.043    1
 3.43626356E+01 9.31303128E-02-3.37845085E-05 5.51162403E-09-3.33336390E-13    2
-5.69566208E+04-1.84990713E+02 2.64206928E+00 1.40158140E-01 1.66536176E-05    3
-1.09571821E-07 4.90047315E-11-4.66594290E+04-1.20930628E+01                   4

!Estimated by RMG using Group Additivity
SPC(1876)               C  16H  33O   2     G   300.000  5000.000   995.043    1
 4.14318769E+01 9.07202634E-02-3.23849758E-05 5.22505235E-09-3.13607743E-13    2
-7.77912145E+04-2.22926175E+02 1.83967954E+00 1.61474289E-01-5.77850249E-06    3
-1.01887743E-07 4.90308977E-11-6.55355563E+04-1.01220878E+01                   4

!Estimated by RMG using Group Additivity
SPC(1879)               C  16H  34O   2     G   300.000  5000.000   995.043    1
 4.34767071E+01 9.15844793E-02-3.28817658E-05 5.32527143E-09-3.20413882E-13    2
-9.68689016E+04-2.35552743E+02 1.78973035E+00 1.63225389E-01 3.74501887E-06    3
-1.16110243E-07 5.45343950E-11-8.38233911E+04-1.07788090E+01                   4

!Estimated by RMG using Group Additivity
SPC(801)                C  16H  21O   3     G   300.000  5000.000   995.043    1
 4.14309581E+01 6.49364059E-02-2.24097427E-05 3.51632248E-09-2.06592536E-13    2
-4.72074648E+04-2.37746872E+02 1.15167572E+00 1.00970369E-01 1.13039523E-04    3
-2.14376322E-07 8.64821210E-11-3.29595008E+04-1.23073394E+01                   4

!Estimated by RMG using Group Additivity
SPC(1993)               C  16H  20O   2     G   300.000  5000.000   995.043    1
 4.09916630E+01 6.28641921E-02-2.36274880E-05 3.93768796E-09-2.41128646E-13    2
-6.77880183E+04-2.37728348E+02 2.25218867E+00 6.86074799E-02 1.93815388E-04    3
-2.93231180E-07 1.12481068E-10-5.26533690E+04-1.37145253E+01                   4

!Estimated by RMG using Group Additivity
SPC(2040)               C  16H  21O   4     G   300.000  5000.000   995.043    1
 4.62026108E+01 6.25755188E-02-2.15445269E-05 3.37726806E-09-1.98285812E-13    2
-6.17921291E+04-2.64128547E+02 8.15230816E-01 1.11253137E-01 1.06739527E-04    3
-2.17684114E-07 8.92888201E-11-4.61369854E+04-1.21079287E+01                   4

!Estimated by RMG using Group Additivity
SPC(1108)               C  16H  21O   3     G   300.000  5000.000   995.043    1
 4.01866669E+01 6.57216890E-02-2.41918165E-05 3.98613119E-09-2.42589284E-13    2
-4.83678715E+04-2.16959323E+02 2.18596369E+00 1.24253407E-01 2.96199031E-05    3
-1.27236647E-07 5.66374662E-11-3.61405837E+04-1.03764303E+01                   4

!Estimated by RMG using Group Additivity
SPC(52)                 C  13H  27          G   300.000  5000.000   995.043    1
 2.79081831E+01 7.57667148E-02-2.73211443E-05 4.43812221E-09-2.67617502E-13    2
-4.40834720E+04-1.50100852E+02 2.85331717E+00 1.09311956E-01 2.33725569E-05    3
-9.73705280E-08 4.23569649E-11-3.57718808E+04-1.26399899E+01                   4

!Estimated by RMG using Group Additivity
SPC(2176)               C  13H  27O   2     G   300.000  5000.000   995.043    1
 3.43830753E+01 7.41011313E-02-2.63288567E-05 4.23355646E-09-2.53495411E-13    2
-6.47535408E+04-1.84989604E+02 2.17731636E+00 1.30486843E-01-1.16401112E-06    3
-8.64356591E-08 4.10709309E-11-5.47265008E+04-1.15962712E+01                   4

!Estimated by RMG using Group Additivity
SPC(2243)               C  13H  28O   2     G   300.000  5000.000   995.043    1
 3.64279055E+01 7.49653473E-02-2.68256467E-05 4.33377554E-09-2.60301550E-13    2
-8.38312279E+04-1.97616172E+02 2.12736716E+00 1.32237944E-01 8.35951024E-06    3
-1.00658159E-07 4.65744282E-11-7.30143356E+04-1.22529923E+01                   4

END

REACTIONS	KCAL/MOL	MOLES
HO2J(43)+SPC(17)=O2(6)+SPC(1) 3.0000000e+11 	 0.00000 	 0.00000 	 !Disproportionation estimate: (Average:)  O_Orad     C_rad/H/OneDeC     
SPC(1)+O2(6)=>SPC(17)+HO2J(43) 4.0000000e+16 	 0.00000 	 28.86735 	 !primary_initiation exact:   RH     O2d      (Ea computed using deltaHrxn(T=298K) of 28.86735206942369 kcal/mol)
HO2J(43)+C11H9J(66)=O2(6)+SPC(4) 3.0000000e+11 	 0.00000 	 0.00000 	 !Disproportionation estimate: (Average:)  O_Orad     C_rad/H2/Cb     