!  This chemkin file was generated by RMG - Reaction Mechanism Generator (http://rmg.mit.edu)
!  The java code was compiled by ant at:
!    2010-06-03T17:16:20
!  The git repository was on the branch:
!    master
!  And at the commit with the hash:
!    fd5d0559212eddf8a50ab507eabc1359a8cf21a9
!
!  For details visit:
!   http://github.com/GreenGroup/RMG-Java/tree/fd5d05
!To see changes since then visit:
!   http://github.com/GreenGroup/RMG-Java/compare/fd5d05...master

ELEMENTS H C O N Ne Ar He Si S END
SPECIES
	Ar
	N2
	O2(1)
	n-C11(2)
	n-C13(3)
	Mnphtln(4)
	n-C16(5)
	C10bnzn(6)
	n-C19(7)
	n-C21(8)
	HO2J(9)
	SPC(42)	!C16H25J
	SPC(117)	!C16H25O2J
	SPC(120)	!C16H26O2
	H2O2(101)
	SPC(119)	!C16H24
	C11H9J(30)
	SPC(206)	!C11H9O2J
	SPC(209)	!C11H10O2
	O2JJ(102)
	SPC(158)	!C16H25O2J
	SPC(250)	!C16H25O4J
	SPC(255)	!C16H26O4
	SPC(32)	!C16H33J
	SPC(335)	!C16H33O2J
	SPC(339)	!C16H34O2
	SPC(152)	!C16H25O2J
	SPC(431)	!C16H25O4J
	SPC(435)	!C16H26O4
	SPC(36)	!C16H33J
	SPC(513)	!C16H33O2J
	SPC(518)	!C16H34O2
	SPC(37)	!C16H33J
	SPC(608)	!C16H33O2J
	SPC(611)	!C16H34O2
END
THERMO ALL
   300.000  1000.000  5000.000
! The first four sets of polynomial coefficients (Ar, N2, Ne, He) are from         
! THIRD MILLENIUM IDEAL GAS AND CONDENSED PHASE THERMOCHEMICAL DATABASE FOR     
! COMBUSTION WITH UPDATES FROM ACTIVE THERMOCHENICAL TABLES                     
! Authors: Alexander Burcat and Branko Ruscic                                   
!                                                                               
! The rest of the species are estimated by RMG (http://rmg.mit.edu/)            
Ar                L 6/88Ar  1               G   200.000  6000.000 1000.        1
 0.25000000E+01 0.00000000E+00 0.00000000E+00 0.00000000E+00 0.00000000E+00    2
-0.74537500E+03 0.43796749E+01 0.25000000E+01 0.00000000E+00 0.00000000E+00    3
 0.00000000E+00 0.00000000E+00-0.74537500E+03 0.43796749E+01                   4
N2                G 8/02N   2               G   200.000  6000.000 1000.        1
 2.95257637E+00 1.39690040E-03-4.92631603E-07 7.86010195E-11-4.60755204E-15    2
-9.23948688E+02 5.87188762E+00 3.53100528E+00-1.23660988E-04-5.02999433E-07    3
 2.43530612E-09-1.40881235E-12-1.04697628E+03 2.96747038E+00                   4
Ne                L10/90Ne  1               G    200.0   6000.00  1000.0       1
 0.25000000E+01 0.00000000E+00 0.00000000E+00 0.00000000E+00 0.00000000E+00    2
-0.74537500E+03 0.33553227E+01 0.25000000E+01 0.00000000E+00 0.00000000E+00    3
 0.00000000E+00 0.00000000E+00-0.74537498E+03 0.33553227E+01                   4
He REF ELEMENT          He  1               G   200.000  6000.000 1000.        1
 2.50000000E+00 0.00000000E+00 0.00000000E+00 0.00000000E+00 0.00000000E+00    2
-7.45375000E+02 9.28723974E-01 2.50000000E+00 0.00000000E+00 0.00000000E+00    3
 0.00000000E+00 0.00000000E+00-7.45375000E+02 9.28723974E-01 0.00000000E+00    4

!Estimated by RMG using Group Additivity
O2(1)                   C   0H   0O   2     G   300.000  5000.000   995.043    1
 3.31508547E+00 1.32006465E-03-5.32714395E-07 9.20149371E-11-5.75811318E-15    2
-4.53677493E+03-5.04042637E+00 3.54508403E+00-1.39003342E-03 6.24430868E-06    3
-6.25186428E-09 2.04119777E-12-4.49415352E+03-5.70472615E+00                   4

!Estimated by RMG using Group Additivity
n-C11(2)                C  11H  24          G   300.000  5000.000   995.043    1
 2.60061484E+01 6.38892438E-02-2.28407483E-05 3.69027154E-09-2.21693293E-13    2
-5.98122669E+04-1.44372355E+02 2.80660224E+00 8.83404413E-02 4.40278881E-05    3
-1.10607521E-07 4.59558203E-11-5.17889195E+04-1.54461970E+01                   4

!Estimated by RMG using Group Additivity
n-C13(3)                C  13H  28          G   300.000  5000.000   995.043    1
 3.07053495E+01 7.49686651E-02-2.68781610E-05 4.35126880E-09-2.61768180E-13    2
-6.86232867E+04-1.70063527E+02 2.58151103E+00 1.08998739E-01 4.09515605E-05    3
-1.20908911E-07 5.12624648E-11-5.91141937E+04-1.48635330E+01                   4

!Estimated by RMG using Group Additivity
Mnphtln(4)              C  11H  10          G   300.000  5000.000   995.043    1
 1.99543052E+01 3.65535524E-02-1.29116584E-05 2.06136391E-09-1.22616726E-13    2
-8.90071304E+03-1.22132762E+02 2.91765803E+00 3.26525402E-02 1.02090605E-04    3
-1.48098918E-07 5.59730704E-11-1.92671435E+03-2.20183862E+01                   4

!Estimated by RMG using Group Additivity
n-C16(5)                C  16H  34          G   300.000  5000.000   995.043    1
 3.77541511E+01 9.15877972E-02-3.29342801E-05 5.34276469E-09-3.21880512E-13    2
-8.17208370E+04-2.08201027E+02 2.24387421E+00 1.39986184E-01 3.63370692E-05    3
-1.36360995E-07 5.92224316E-11-6.99831259E+04-1.35902780E+01                   4

!Estimated by RMG using Group Additivity
C10bnzn(6)              C  16H  26          G   300.000  5000.000   995.043    1
 3.57646840E+01 7.38090261E-02-2.64824772E-05 4.28846807E-09-2.57946794E-13    2
-5.14393134E+04-2.03458432E+02 2.20795129E+00 1.03781096E-01 8.65048752E-05    3
-1.77383310E-07 7.20111554E-11-3.95669421E+04-1.56324963E+01                   4

!Estimated by RMG using Group Additivity
n-C19(7)                C  19H  40          G   300.000  5000.000   995.043    1
 4.48029527E+01 1.08206929E-01-3.89903992E-05 6.33426058E-09-3.81992844E-13    2
-9.47061957E+04-2.45962045E+02 1.90623740E+00 1.70973630E-01 3.17225778E-05    3
-1.51813080E-07 6.71823984E-11-8.07398663E+04-1.19405407E+01                   4

!Estimated by RMG using Group Additivity
n-C21(8)                C  21H  44          G   300.000  5000.000   995.043    1
 4.95021538E+01 1.19286351E-01-4.30278119E-05 6.99525783E-09-4.22067732E-13    2
-1.03312543E+05-2.70966399E+02 1.68114619E+00 1.91631927E-01 2.86462502E-05    3
-1.62114469E-07 7.24890430E-11-8.78604685E+04-1.06710580E+01                   4

!Primary Thermo Library: DFT_QCI (Species ID: HO2)
HO2J(9)                 C   0H   1O   2     G   300.000  5000.000   995.043    1
 3.96158493E+00 2.39192543E-03-7.88957869E-07 1.20676912E-10-6.97181257E-15    2
-6.00942607E+03-1.51296738E+01 3.98358981E+00-2.36160518E-03 1.34093310E-05    3
-1.41036759E-08 4.75061841E-12-5.78285845E+03-1.40752385E+01                   4

!Estimated by RMG using Group Additivity
SPC(42)                 C  16H  25          G   300.000  5000.000   995.043    1
 3.52276567E+01 7.24578819E-02-2.57178347E-05 4.12778059E-09-2.46719165E-13    2
-3.39010384E+04-2.01840008E+02 2.04608900E+00 1.12496734E-01 5.46452407E-05    3
-1.43995589E-07 6.06563026E-11-2.26763503E+04-1.87015467E+01                   4

!Estimated by RMG using Group Additivity
SPC(117)                C  16H  25O   2     G   300.000  5000.000   995.043    1
 3.93281701E+01 7.33811309E-02-2.62825804E-05 4.24850316E-09-2.55207399E-13    2
-4.68259952E+04-2.17939508E+02 1.91369136E+00 1.21552533E-01 5.52124514E-05    3
-1.53605444E-07 6.53467977E-11-3.43191421E+04-1.21908809E+01                   4

!Estimated by RMG using Group Additivity
SPC(120)                C  16H  26O   2     G   300.000  5000.000   995.043    1
 4.13730003E+01 7.42453469E-02-2.67793704E-05 4.34872225E-09-2.62013537E-13    2
-6.59036823E+04-2.30566076E+02 1.86374216E+00 1.23303633E-01 6.47359727E-05    3
-1.67827944E-07 7.08502949E-11-5.26069769E+04-1.28476021E+01                   4

!Primary Thermo Library: DFT_QCI (Species ID: HOOH)
H2O2(101)               C   0H   2O   2     G   300.000  5000.000   995.043    1
 4.60638038E+00 3.85869351E-03-1.24776252E-06 1.87838104E-10-1.07281618E-14    2
-2.42334456E+04-1.87427398E+01 3.91485770E+00 1.13883575E-03 1.11430415E-05    3
-1.36685151E-08 4.86620213E-12-2.38235598E+04-1.40418627E+01                   4

!Estimated by RMG using Group Additivity
SPC(119)                C  16H  24          G   300.000  5000.000   995.043    1
 3.53752816E+01 6.91278701E-02-2.46548810E-05 3.97530308E-09-2.38388072E-13    2
-3.73516892E+04-1.99053115E+02 2.12163523E+00 1.02181435E-01 7.72052468E-05    3
-1.65898538E-07 6.79754192E-11-2.57525025E+04-1.37575311E+01                   4

!Estimated by RMG using Group Additivity
C11H9J(30)              C  11H   9          G   300.000  5000.000   995.043    1
 2.09447403E+01 3.31035326E-02-1.09946431E-05 1.66872551E-09-9.55340668E-14    2
 9.31275374E+03-1.28696992E+02 2.40968256E+00 3.92209220E-02 8.28829481E-05    3
-1.30303477E-07 5.04167544E-11 1.63871794E+04-2.23548719E+01                   4

!Estimated by RMG using Group Additivity
SPC(206)                C  11H   9O   2     G   300.000  5000.000   995.043    1
 2.24632134E+01 3.73922606E-02-1.33627224E-05 2.14958613E-09-1.28559777E-13    2
-1.69183084E+03-1.29848546E+02 2.82206171E+00 5.33097506E-02 5.76709512E-05    3
-1.09110308E-07 4.38213306E-11 5.33768022E+03-1.95074442E+01                   4

!Estimated by RMG using Group Additivity
SPC(209)                C  11H  10O   2     G   300.000  5000.000   995.043    1
 2.45080436E+01 3.82564765E-02-1.38595123E-05 2.24980521E-09-1.35365915E-13    2
-2.07695179E+04-1.42475114E+02 2.77211252E+00 5.50608512E-02 6.71944726E-05    3
-1.23332808E-07 4.93248278E-11-1.29501545E+04-2.01641654E+01                   4

!Primary Thermo Library: DFT_QCI (Species ID: O2)
O2JJ(102)               C   0H   0O   2     G   300.000  5000.000   995.043    1
 3.26637547E+00 1.33084920E-03-5.60425667E-07 9.95681389E-11-6.34516057E-15    2
-1.30178416E+04-3.36880726E+01 3.56498721E+00-1.29989085E-03 5.56154607E-06    3
-5.44670878E-09 1.75008852E-12-1.30064581E+04-3.47714047E+01                   4

!Estimated by RMG using Group Additivity
SPC(158)                C  16H  25O   2     G   300.000  5000.000   995.043    1
 3.79814848E+01 7.57878625E-02-2.76295989E-05 4.51758159E-09-2.73469415E-13    2
-4.11394661E+04-2.08048839E+02 2.26193723E+00 1.23475589E-01 4.50525211E-05    3
-1.41038769E-07 6.06325949E-11-2.92832800E+04-1.20434643E+01                   4

!Estimated by RMG using Group Additivity
SPC(250)                C  16H  25O   4     G   300.000  5000.000   995.043    1
 4.50507262E+01 7.33778131E-02-2.62300661E-05 4.23100991E-09-2.53740768E-13    2
-6.19686187E+04-2.45966042E+02 1.45954749E+00 1.44791738E-01 2.26204011E-05    3
-1.33354692E-07 6.06587610E-11-4.81539662E+04-1.00542306E+01                   4

!Estimated by RMG using Group Additivity
SPC(255)                C  16H  26O   4     G   300.000  5000.000   995.043    1
 4.70955564E+01 7.42420290E-02-2.67268561E-05 4.33122899E-09-2.60546906E-13    2
-8.10463058E+04-2.58592610E+02 1.40959829E+00 1.46542838E-01 3.21439224E-05    3
-1.47577192E-07 6.61622583E-11-6.64418009E+04-1.07109517E+01                   4

!Estimated by RMG using Group Additivity
SPC(32)                 C  16H  33          G   300.000  5000.000   995.043    1
 3.49569847E+01 9.23858468E-02-3.33772634E-05 5.42961810E-09-3.27729834E-13    2
-5.71810224E+04-1.88238352E+02 2.51568035E+00 1.40299401E-01 1.87580656E-05    3
-1.12822612E-07 5.03169317E-11-4.66408129E+04-1.13667349E+01                   4

!Estimated by RMG using Group Additivity
SPC(335)                C  16H  33O   2     G   300.000  5000.000   995.043    1
 4.14318769E+01 9.07202634E-02-3.23849758E-05 5.22505235E-09-3.13607743E-13    2
-7.77912145E+04-2.22926175E+02 1.83967954E+00 1.61474289E-01-5.77850249E-06    3
-1.01887743E-07 4.90308977E-11-6.55355563E+04-1.01220878E+01                   4

!Estimated by RMG using Group Additivity
SPC(339)                C  16H  34O   2     G   300.000  5000.000   995.043    1
 4.34767071E+01 9.15844793E-02-3.28817658E-05 5.32527143E-09-3.20413882E-13    2
-9.68689016E+04-2.35552743E+02 1.78973035E+00 1.63225389E-01 3.74501887E-06    3
-1.16110243E-07 5.45343950E-11-8.38233911E+04-1.07788090E+01                   4

!Estimated by RMG using Group Additivity
SPC(152)                C  16H  25O   2     G   300.000  5000.000   995.043    1
 3.79814848E+01 7.57878625E-02-2.76295989E-05 4.51758159E-09-2.73469415E-13    2
-4.11394661E+04-2.08048839E+02 2.26193723E+00 1.23475589E-01 4.50525211E-05    3
-1.41038769E-07 6.06325949E-11-2.92832800E+04-1.20434643E+01                   4

!Estimated by RMG using Group Additivity
SPC(431)                C  16H  25O   4     G   300.000  5000.000   995.043    1
 4.50507262E+01 7.33778131E-02-2.62300661E-05 4.23100991E-09-2.53740768E-13    2
-6.19686187E+04-2.45966042E+02 1.45954749E+00 1.44791738E-01 2.26204011E-05    3
-1.33354692E-07 6.06587610E-11-4.81539662E+04-1.00542306E+01                   4

!Estimated by RMG using Group Additivity
SPC(435)                C  16H  26O   4     G   300.000  5000.000   995.043    1
 4.70955564E+01 7.42420290E-02-2.67268561E-05 4.33122899E-09-2.60546906E-13    2
-8.10463058E+04-2.58592610E+02 1.40959829E+00 1.46542838E-01 3.21439224E-05    3
-1.47577192E-07 6.61622583E-11-6.64418009E+04-1.07109517E+01                   4

!Estimated by RMG using Group Additivity
SPC(36)                 C  16H  33          G   300.000  5000.000   995.043    1
 3.43626356E+01 9.31303128E-02-3.37845085E-05 5.51162403E-09-3.33336390E-13    2
-5.69566208E+04-1.84990713E+02 2.64206928E+00 1.40158140E-01 1.66536176E-05    3
-1.09571821E-07 4.90047315E-11-4.66594290E+04-1.20930628E+01                   4

!Estimated by RMG using Group Additivity
SPC(513)                C  16H  33O   2     G   300.000  5000.000   995.043    1
 4.14318769E+01 9.07202634E-02-3.23849758E-05 5.22505235E-09-3.13607743E-13    2
-7.77912145E+04-2.22926175E+02 1.83967954E+00 1.61474289E-01-5.77850249E-06    3
-1.01887743E-07 4.90308977E-11-6.55355563E+04-1.01220878E+01                   4

!Estimated by RMG using Group Additivity
SPC(518)                C  16H  34O   2     G   300.000  5000.000   995.043    1
 4.34767071E+01 9.15844793E-02-3.28817658E-05 5.32527143E-09-3.20413882E-13    2
-9.68689016E+04-2.35552743E+02 1.78973035E+00 1.63225389E-01 3.74501887E-06    3
-1.16110243E-07 5.45343950E-11-8.38233911E+04-1.07788090E+01                   4

!Estimated by RMG using Group Additivity
SPC(37)                 C  16H  33          G   300.000  5000.000   995.043    1
 3.43626356E+01 9.31303128E-02-3.37845085E-05 5.51162403E-09-3.33336390E-13    2
-5.69566208E+04-1.84990713E+02 2.64206928E+00 1.40158140E-01 1.66536176E-05    3
-1.09571821E-07 4.90047315E-11-4.66594290E+04-1.20930628E+01                   4

!Estimated by RMG using Group Additivity
SPC(608)                C  16H  33O   2     G   300.000  5000.000   995.043    1
 4.14318769E+01 9.07202634E-02-3.23849758E-05 5.22505235E-09-3.13607743E-13    2
-7.77912145E+04-2.22926175E+02 1.83967954E+00 1.61474289E-01-5.77850249E-06    3
-1.01887743E-07 4.90308977E-11-6.55355563E+04-1.01220878E+01                   4

!Estimated by RMG using Group Additivity
SPC(611)                C  16H  34O   2     G   300.000  5000.000   995.043    1
 4.34767071E+01 9.15844793E-02-3.28817658E-05 5.32527143E-09-3.20413882E-13    2
-9.68689016E+04-2.35552743E+02 1.78973035E+00 1.63225389E-01 3.74501887E-06    3
-1.16110243E-07 5.45343950E-11-8.38233911E+04-1.07788090E+01                   4

END

REACTIONS	KCAL/MOL	MOLES
HO2J(9)+SPC(42)=O2(1)+C10bnzn(6) 3.0000000e+11 	 0.00000 	 0.00000 	 !Disproportionation estimate: (Average of: (Y_rad O_Orad))  O_Orad     C_rad/H/OneDeC     
O2(1)+SPC(42)=SPC(117) 7.5400000e+12 	 0.00000 	 0.00000 	 !R_Addition_MultipleBond estimate: (Average of: (O2d C_sec_rad))  O2d     C_rad/H/OneDeC     
SPC(42)+HO2J(9)=SPC(120) 1.6424769e+13 	 -0.15000 	 0.31000 	 !R_Recombination estimate: (Average of: (Average of: (H_rad H_rad && Average of: (C_methyl C_methyl && Average of: (C_rad/H2/Cs C_rad/H2/Cs) && Average of: (C_rad/H/NonDeC C_rad/H/NonDeC) && Average of: (Average of: (C_rad/Cs3 C_rad/Cs3))) && Average of: (Cd_pri_rad Cd_pri_rad) && Cb_rad Cb_rad && Average of: (CO_pri_rad CO_pri_rad && Average of: (CO_rad/NonDe CO_rad/NonDe)) && Average of: (O_pri_rad O_pri_rad && Average of: (O_rad/NonDe O_rad/NonDe)))))  C_rad/H/OneDeC     O_rad/NonDe     
C10bnzn(6)+SPC(117)=SPC(42)+SPC(120) 2.6681028e+09 	 0.95000 	 5.64400 	 !H_Abstraction estimate: (Average of: (Average of: (C/H2/NonDeC O_pri_rad && Average of: (C/H2/NonDeC O_rad/NonDeC && C/H2/NonDeC O_rad/NonDeO))))  C/H2/OneDeC     O_rad/NonDeO     
SPC(117)+HO2J(9)=SPC(120)+O2(1) 1.7500000e+10 	 0.00000 	 -3.27500 	 !Disproportionation estimate: (Average of: (O_sec_rad O_Orad))  O_rad/NonDeO     O_Orad     
C10bnzn(6)+HO2J(9)=SPC(42)+H2O2(101) 2.6681028e+09 	 0.95000 	 5.64400 	 !H_Abstraction estimate: (Average of: (Average of: (C/H2/NonDeC O_pri_rad && Average of: (C/H2/NonDeC O_rad/NonDeC && C/H2/NonDeC O_rad/NonDeO))))  C/H2/OneDeC     O_rad/NonDeO     
HO2J(9)+HO2J(9)=H2O2(101)+O2(1) 1.7500000e+10 	 0.00000 	 -3.27500 	 !Disproportionation estimate: (Average of: (O_sec_rad O_Orad))  O_rad/NonDeO     O_Orad     
SPC(117)+H2O2(101)=SPC(120)+HO2J(9) 3.4600000e+01 	 3.40000 	 -1.14000 	 !H_Abstraction estimate: (Average of: (Average of: (O/H/NonDeC O_pri_rad)))  O_rad/NonDeO     H2O2     
HO2J(9)+SPC(42)=H2O2(101)+SPC(119) 4.8200000e+13 	 0.00000 	 0.00000 	 !Disproportionation estimate: (Average of: (Average of: (O_pri_rad C/H2/Nd_Csrad)))  O_rad/NonDeO     C/H2/Nd_Csrad     
SPC(42)+SPC(42)=C10bnzn(6)+SPC(119) 1.0260000e+14 	 -0.35000 	 0.00000 	 !Disproportionation estimate: (Average of: (Average of: (C_rad/H/NonDeC C/H2/Nd_Csrad)))  C_rad/H/OneDeC     C/H2/Nd_Csrad     
O2(1)+SPC(42)=HO2J(9)+SPC(119) 9.0330000e+10 	 0.00000 	 0.00000 	 !Disproportionation_O2d exact:   O2d     C/H2/Nd_Csrad     
SPC(117)+SPC(42)=SPC(120)+SPC(119) 4.8200000e+13 	 0.00000 	 0.00000 	 !Disproportionation estimate: (Average of: (Average of: (O_pri_rad C/H2/Nd_Csrad)))  O_rad/NonDeO     C/H2/Nd_Csrad     
SPC(117)=>HO2J(9)+SPC(119) 8.0040557e+10 	 0.56333 	 29.80000 	 !HO2_Elimination_from_PeroxyRadical estimate: (Average of: (Average of: (R2OO_HNd_2H && R2OO_HNd_HNd && R2OO_HNd_NdNd)))  R2OO_HNd_HDe     
HO2J(9)+C11H9J(30)=O2(1)+Mnphtln(4) 3.0000000e+11 	 0.00000 	 0.00000 	 !Disproportionation estimate: (Average of: (Y_rad O_Orad))  O_Orad     C_rad/H2/Cb     
C11H9J(30)+H2O2(101)=Mnphtln(4)+HO2J(9) 2.0304987e+00 	 3.29000 	 1.07250 	 !H_Abstraction estimate: (Average of: (Average of: (Average of: (H2O2 InChI=1/C4H9O/c1-2-3-4-5/h5H,1-4H2 && H2O2 InChI=1/C4H9O/c1-3-4(2)5/h4-5H,2-3H2,1H3 && H2O2 InChI=1/C4H9O/c1-3-4(2)5/h4-5H,1,3H2,2H3 && H2O2 InChI=1/C4H9O/c1-4(2,3)5/h5H,1H2,2-3H3))))  C_rad/H2/Cb     H2O2     
C11H9J(30)+C10bnzn(6)=Mnphtln(4)+SPC(42) 3.0397882e+06 	 1.88583 	 9.44833 	 !H_Abstraction estimate: (Average of: (Average of: (C/H2/NonDeC C_methyl && Average of: (C/H2/NonDeC C_rad/H2/Cs && C/H2/NonDeC C_rad/H2/O) && Average of: (C/H2/NonDeC C_rad/H/NonDeC) && Average of: (Average of: (C/H2/NonDeC C_rad/Cs3)) && Average of: (C/H2/OneDeC C_methyl) && C/H2/TwoDe C_methyl)))  C_rad/H2/Cb     C/H2/OneDeC     
C11H9J(30)+SPC(120)=Mnphtln(4)+SPC(117) 1.0152493e+00 	 3.29000 	 1.07250 	 !H_Abstraction estimate: (Average of: (Average of: (Average of: (H2O2 InChI=1/C4H9O/c1-2-3-4-5/h5H,1-4H2 && H2O2 InChI=1/C4H9O/c1-3-4(2)5/h4-5H,2-3H2,1H3 && H2O2 InChI=1/C4H9O/c1-3-4(2)5/h4-5H,1,3H2,2H3 && H2O2 InChI=1/C4H9O/c1-4(2,3)5/h5H,1H2,2-3H3))))  C_rad/H2/Cb     O/H/NonDeO     
SPC(42)+C11H9J(30)=SPC(119)+Mnphtln(4) 2.0088970e+12 	 0.00000 	 -0.04333 	 !Disproportionation estimate: (Average of: (Average of: (C_rad/H2/Cs C/H2/Nd_Csrad && C_rad/H2/Cd C/H2/Nd_Csrad && C_rad/H2/O C/H2/Nd_Csrad)))  C/H2/Nd_Csrad     C_rad/H2/Cb     
O2(1)+C11H9J(30)=SPC(206) 4.5200000e+12 	 0.00000 	 0.00000 	 !R_Addition_MultipleBond estimate: (Average of: (O2d C_pri_rad))  O2d     C_rad/H2/Cb     
C11H9J(30)+HO2J(9)=SPC(209) 1.6424769e+13 	 -0.15000 	 0.31000 	 !R_Recombination estimate: (Average of: (Average of: (H_rad H_rad && Average of: (C_methyl C_methyl && Average of: (C_rad/H2/Cs C_rad/H2/Cs) && Average of: (C_rad/H/NonDeC C_rad/H/NonDeC) && Average of: (Average of: (C_rad/Cs3 C_rad/Cs3))) && Average of: (Cd_pri_rad Cd_pri_rad) && Cb_rad Cb_rad && Average of: (CO_pri_rad CO_pri_rad && Average of: (CO_rad/NonDe CO_rad/NonDe)) && Average of: (O_pri_rad O_pri_rad && Average of: (O_rad/NonDe O_rad/NonDe)))))  C_rad/H2/Cb     O_rad/NonDe     
C11H9J(30)+SPC(209)=Mnphtln(4)+SPC(206) 1.0152493e+00 	 3.29000 	 1.07250 	 !H_Abstraction estimate: (Average of: (Average of: (Average of: (H2O2 InChI=1/C4H9O/c1-2-3-4-5/h5H,1-4H2 && H2O2 InChI=1/C4H9O/c1-3-4(2)5/h4-5H,2-3H2,1H3 && H2O2 InChI=1/C4H9O/c1-3-4(2)5/h4-5H,1,3H2,2H3 && H2O2 InChI=1/C4H9O/c1-4(2,3)5/h5H,1H2,2-3H3))))  C_rad/H2/Cb     O/H/NonDeO     
C10bnzn(6)+SPC(206)=SPC(42)+SPC(209) 2.6681028e+09 	 0.95000 	 5.64400 	 !H_Abstraction estimate: (Average of: (Average of: (C/H2/NonDeC O_pri_rad && Average of: (C/H2/NonDeC O_rad/NonDeC && C/H2/NonDeC O_rad/NonDeO))))  C/H2/OneDeC     O_rad/NonDeO     
SPC(120)+SPC(206)=SPC(117)+SPC(209) 1.7300000e+01 	 3.40000 	 -1.14000 	 !H_Abstraction estimate: (Average of: (Average of: (O/H/NonDeC O_pri_rad)))  O/H/NonDeO     O_rad/NonDeO     
H2O2(101)+SPC(206)=HO2J(9)+SPC(209) 3.4600000e+01 	 3.40000 	 -1.14000 	 !H_Abstraction estimate: (Average of: (Average of: (O/H/NonDeC O_pri_rad)))  H2O2     O_rad/NonDeO     
SPC(206)+HO2J(9)=SPC(209)+O2(1) 1.7500000e+10 	 0.00000 	 -3.27500 	 !Disproportionation estimate: (Average of: (O_sec_rad O_Orad))  O_rad/NonDeO     O_Orad     
SPC(206)+SPC(42)=SPC(209)+SPC(119) 4.8200000e+13 	 0.00000 	 0.00000 	 !Disproportionation estimate: (Average of: (Average of: (O_pri_rad C/H2/Nd_Csrad)))  O_rad/NonDeO     C/H2/Nd_Csrad     
HO2J(9)+HO2J(9)=O2JJ(102)+H2O2(101) 1.4000000e+04 	 2.69000 	 -18.83835 	 !H_Abstraction estimate: (Average of: (X_H O_sec_rad))  X_H     O_rad/NonDeO     
HO2J(9)+O2JJ(102)=O2(1)+HO2J(9) 1.2000000e+12 	 0.00000 	 0.00000 	 !Disproportionation exact:   Y_rad     O_Orad     
HO2J(9)+SPC(42)=O2JJ(102)+C10bnzn(6) 5.0538614e+08 	 1.19559 	 13.58565 	 !H_Abstraction estimate: (Average of: (Average of: (Average of: (Average of: (H2 O2b) && H2 H_rad && Average of: (H2 C_methyl && Average of: (H2 C_rad/H2/Cs && H2 C_rad/H2/Cd && H2 C_rad/H2/Ct) && Average of: (H2 C_rad/H/NonDeC && Average of: (H2 C_rad/H/OneDeC)) && Average of: (Average of: (H2 C_rad/Cs3) && Average of: (H2 C_rad/Cs2))) && Average of: (H2 Cd_pri_rad && Average of: (H2 Cd_rad/NonDeC && H2 Cd_rad/OneDe)) && H2 Ct_rad && H2 Cb_rad && Average of: (H2 CO_pri_rad && Average of: (H2 CO_rad/NonDe)) && Average of: (H2 O_pri_rad && Average of: (H2 O_rad/NonDeC))) && Average of: (Average of: (C/H3/Cs O_atom_triplet) && Average of: (C/H2/NonDeC O_atom_triplet) && Average of: (Average of: (C/H/Cs3 O_atom_triplet)) && Average of: (C/H2/NonDeC CH2_triplet) && Average of: (Average of: (C/H/Cs3 CH2_triplet))) && Average of: (Average of: (C_methane O2b) && Average of: (C/H3/Cs O2b) && Average of: (C/H2/NonDeC O2b) && Average of: (Average of: (C/H/Cs3 O2b)) && C_methane H_rad && Average of: (C/H3/Cs H_rad && C/H3/Cd H_rad && C/H3/Ct H_rad && C/H3/O H_rad) && Average of: (C/H2/NonDeC H_rad && Average of: (C/H2/OneDeC H_rad) && C/H2/TwoDe H_rad) && Average of: (Average of: (C/H/Cs3 H_rad) && Average of: (C/H/Cs2 H_rad)) && Average of: (C_methane C_methyl && Average of: (C_methane C_rad/H2/Cs && C_methane C_rad/H2/Cd) && Average of: (C_methane C_rad/H/NonDeC) && Average of: (Average of: (C_methane C_rad/Cs3))) && Average of: (C/H3/Cs C_methyl && Average of: (C/H3/Cs C_rad/H2/Cs) && Average of: (C/H3/Cs C_rad/H/NonDeC) && Average of: (Average of: (C/H3/Cs C_rad/Cs3)) && C/H3/Cd C_methyl && Average of: (C/H3/Cd C_rad/H2/Cs && C/H3/Cd C_rad/H2/Cd && C/H3/Cd C_rad/H2/Ct) && Average of: (C/H3/Cd C_rad/H/NonDeC && Average of: (C/H3/Cd C_rad/H/OneDeC)) && Average of: (Average of: (C/H3/Cd C_rad/Cs3) && Average of: (C/H3/Cd C_rad/Cs2)) && C/H3/Ct C_methyl && C/H3/Cb C_methyl && C/H3/O C_methyl) && Average of: (C/H2/NonDeC C_methyl && Average of: (C/H2/NonDeC C_rad/H2/Cs && C/H2/NonDeC C_rad/H2/O) && Average of: (C/H2/NonDeC C_rad/H/NonDeC) && Average of: (Average of: (C/H2/NonDeC C_rad/Cs3)) && Average of: (C/H2/OneDeC C_methyl) && C/H2/TwoDe C_methyl) && Average of: (Average of: (C/H/Cs3 C_methyl) && Average of: (C/H/Cs3 C_rad/H2/Cs && C/H/Cs3 C_rad/H2/Cd && C/H/Cs3 C_rad/H2/Ct) && Average of: (C/H/Cs3 C_rad/H/NonDeC && Average of: (C/H/Cs3 C_rad/H/OneDeC)) && Average of: (Average of: (C/H/Cs3 C_rad/Cs3) && Average of: (C/H/Cs3 C_rad/Cs2)) && Average of: (C/H/Cs2 C_methyl) && Average of: (C/H/Cs C_methyl)) && Average of: (C_methane Cd_pri_rad) && Average of: (C/H3/Cd Cd_pri_rad && Average of: (C/H3/Cd Cd_rad/NonDeC && C/H3/Cd Cd_rad/OneDe)) && Average of: (C/H2/NonDeC Cd_pri_rad) && Average of: (Average of: (C/H/Cs3 Cd_pri_rad) && Average of: (C/H/Cs3 Cd_rad/NonDeC && C/H/Cs3 Cd_rad/OneDe)) && C_methane Ct_rad && Average of: (C/H3/Cs Ct_rad) && Average of: (C/H2/NonDeC Ct_rad) && Average of: (Average of: (C/H/Cs3 Ct_rad)) && C_methane Cb_rad && Average of: (C/H3/Cs Cb_rad) && Average of: (C_methane CO_pri_rad && Average of: (C_methane CO_rad/NonDe)) && Average of: (C/H3/Cs CO_pri_rad && Average of: (C/H3/Cs CO_rad/NonDe)) && Average of: (C/H2/NonDeC CO_pri_rad && Average of: (C/H2/NonDeC CO_rad/NonDe)) && Average of: (Average of: (C/H/Cs3 CO_pri_rad) && Average of: (C/H/Cs3 CO_rad/NonDe)) && Average of: (C_methane O_pri_rad && Average of: (C_methane O_rad/NonDeC && C_methane O_rad/NonDeO)) && Average of: (C/H3/Cs O_pri_rad && Average of: (C/H3/Cs O_rad/NonDeC && C/H3/Cs O_rad/NonDeO) && C/H3/CO O_pri_rad && C/H3/O O_pri_rad) && Average of: (C/H2/NonDeC O_pri_rad && Average of: (C/H2/NonDeC O_rad/NonDeC && C/H2/NonDeC O_rad/NonDeO)) && Average of: (Average of: (C/H/Cs3 O_pri_rad) && Average of: (C/H/Cs3 O_rad/NonDeC && C/H/Cs3 O_rad/NonDeO))) && Average of: (Cd_pri O_atom_triplet && Average of: (Cd/H/NonDeC O_atom_triplet)) && Average of: (Average of: (Cd_pri O2b) && Cd_pri H_rad && Average of: (Cd/H/NonDeC H_rad && Cd/H/NonDeO H_rad && Cd/H/OneDe H_rad) && Average of: (Cd_pri C_methyl && Average of: (Cd_pri C_rad/H2/Cs && Cd_pri C_rad/H2/Cd && Cd_pri C_rad/H2/Ct) && Average of: (Cd_pri C_rad/H/NonDeC && Average of: (Cd_pri C_rad/H/OneDeC)) && Average of: (Average of: (Cd_pri C_rad/Cs3) && Average of: (Cd_pri C_rad/Cs2))) && Average of: (Cd/H/NonDeC C_methyl && Cd/H/OneDe C_methyl) && Average of: (Cd_pri Cd_pri_rad && Average of: (Cd_pri Cd_rad/NonDeC && Cd_pri Cd_rad/OneDe)) && Average of: (Cd/H/NonDeC Cd_pri_rad) && Average of: (Cd/H/NonDeC Ct_rad) && Average of: (Cd_pri O_pri_rad) && Average of: (Cd/H/NonDeC O_pri_rad)) && Average of: (Average of: (Ct_H O2b) && Ct_H H_rad && Average of: (Ct_H C_methyl && Average of: (Ct_H C_rad/H2/Cs)) && Average of: (Ct_H O_pri_rad)) && Average of: (Average of: (Cb_H O2b) && Cb_H H_rad && Average of: (Cb_H C_methyl && Average of: (Cb_H C_rad/H2/Cs)) && Average of: (Cb_H O_pri_rad)) && Average of: (CO_pri O_atom_triplet && Average of: (CO/H/NonDe O_atom_triplet) && CO_pri CH2_triplet) && Average of: (Average of: (CO_pri O2b) && Average of: (CO/H/NonDe O2b) && CO_pri H_rad && Average of: (CO/H/NonDe H_rad) && Average of: (CO_pri C_methyl && Average of: (CO_pri C_rad/H2/Cs) && Average of: (CO_pri C_rad/H/NonDeC) && Average of: (Average of: (CO_pri C_rad/Cs3))) && Average of: (CO/H/NonDe C_methyl && Average of: (CO/H/NonDe C_rad/H2/Cd)) && Average of: (CO_pri Cd_pri_rad) && Average of: (CO/H/NonDe Cd_pri_rad) && Average of: (Average of: (CO_pri CO_rad/NonDe)) && Average of: (CO_pri O_pri_rad && Average of: (CO_pri O_rad/NonDeC && CO_pri O_rad/NonDeO)) && Average of: (CO/H/NonDe O_pri_rad && Average of: (CO/H/NonDe O_rad/NonDeO))) && Average of: (O_pri O_atom_triplet && Average of: (O/H/NonDeC O_atom_triplet) && Average of: (O/H/NonDeC CH2_triplet)) && Average of: (Average of: (O_pri O2b) && O_pri H_rad && Average of: (O/H/NonDeC H_rad && O/H/OneDe H_rad) && Average of: (O_pri C_methyl && Average of: (O_pri C_rad/H2/Cs)) && Average of: (O/H/NonDeC C_methyl && Average of: (O/H/NonDeC C_rad/H2/Cs) && Average of: (O/H/NonDeC C_rad/H/NonDeC) && Average of: (Average of: (O/H/NonDeC C_rad/Cs3)) && Average of: (Average of: (H2O2 InChI=1/C4H9O/c1-2-3-4-5/h5H,1-4H2 && H2O2 InChI=1/C4H9O/c1-3-4(2)5/h4-5H,2-3H2,1H3 && H2O2 InChI=1/C4H9O/c1-3-4(2)5/h4-5H,1,3H2,2H3 && H2O2 InChI=1/C4H9O/c1-4(2,3)5/h5H,1H2,2-3H3)) && Average of: (Average of: (H2O2 InChI=1/C4H9O/c1-2-3-4-5/h2,5H,3-4H2,1H3 && H2O2 InChI=1/C4H9O/c1-2-3-4-5/h3,5H,2,4H2,1H3 && H2O2 InChI=1/C4H9O/c1-3-4(2)5/h3-5H,1-2H3) && Average of: (Average of: (H2O2 InChI=1/C4H9O/c1-2-3-4-5/h4-5H,2-3H2,1H3))) && Average of: (Average of: (Average of: (H2O2 InChI=1/C4H9O/c1-3-4(2)5/h5H,3H2,1-2H3))) && O/H/OneDe C_methyl) && Average of: (O_pri Cd_pri_rad) && Average of: (O/H/NonDeC Cd_pri_rad) && Average of: (O/H/NonDeC Ct_rad) && Average of: (O_pri CO_pri_rad) && Average of: (O_pri O_pri_rad && Average of: (O_pri O_rad/NonDeC)) && Average of: (O/H/NonDeC O_pri_rad)))))  X_H     C_rad/H/OneDeC     
HO2J(9)+SPC(117)=O2JJ(102)+SPC(120) 1.4000000e+04 	 2.69000 	 -19.12635 	 !H_Abstraction estimate: (Average of: (X_H O_sec_rad))  X_H     O_rad/NonDeO     
O2JJ(102)+SPC(42)=SPC(117) 3.2849538e+13 	 -0.15000 	 0.31000 	 !R_Recombination estimate: (Average of: (Average of: (H_rad H_rad && Average of: (C_methyl C_methyl && Average of: (C_rad/H2/Cs C_rad/H2/Cs) && Average of: (C_rad/H/NonDeC C_rad/H/NonDeC) && Average of: (Average of: (C_rad/Cs3 C_rad/Cs3))) && Average of: (Cd_pri_rad Cd_pri_rad) && Cb_rad Cb_rad && Average of: (CO_pri_rad CO_pri_rad && Average of: (CO_rad/NonDe CO_rad/NonDe)) && Average of: (O_pri_rad O_pri_rad && Average of: (O_rad/NonDe O_rad/NonDe)))))  Y_rad     C_rad/H/OneDeC     