!  This chemkin file was generated by RMG - Reaction Mechanism Generator (http://rmg.mit.edu)
!  The java code was compiled by ant at:
!    2010-03-12T19:46:50
!  The git repository was on the branch:
!    monch_shared
!  And at the commit with the hash:
!    5819db6cfe5eedb6fee7d21e25f1ebf9712ffb39
!
!  For details visit:
!   http://github.com/GreenGroup/RMG-Java/tree/5819db
!To see changes since then visit:
!   http://github.com/GreenGroup/RMG-Java/compare/5819db...master

ELEMENTS H C O N Ne Ar He Si S END
SPECIES
	Ar
	N2
	O2(1)
	n-C11(2)
	n-C13(3)
	Mnphtln(4)
	n-C16(5)
	C10bnzn(6)
	n-C19(7)
	n-C21(8)
	HO2J(9)
	SPC(42)
	SPC(116)
	SPC(119)
	SPC(118)
	H2O2(101)
	C11H9J(30)
	SPC(205)
	SPC(208)
	SPC(180)
	SPC(248)
	SPC(262)
	SPC(255)
	SPC(265)
END
THERMO ALL
   300.000  1000.000  5000.000
! The first four sets of polynomial coefficients (Ar, N2, Ne, He) are from         
! THIRD MILLENIUM IDEAL GAS AND CONDENSED PHASE THERMOCHEMICAL DATABASE FOR     
! COMBUSTION WITH UPDATES FROM ACTIVE THERMOCHENICAL TABLES                     
! Authors: Alexander Burcat and Branko Ruscic                                   
!                                                                               
! The rest of the species are estimated by RMG (http://rmg.mit.edu/)            
Ar                L 6/88Ar  1               G   200.000  6000.000 1000.        1
 0.25000000E+01 0.00000000E+00 0.00000000E+00 0.00000000E+00 0.00000000E+00    2
-0.74537500E+03 0.43796749E+01 0.25000000E+01 0.00000000E+00 0.00000000E+00    3
 0.00000000E+00 0.00000000E+00-0.74537500E+03 0.43796749E+01                   4
N2                G 8/02N   2               G   200.000  6000.000 1000.        1
 2.95257637E+00 1.39690040E-03-4.92631603E-07 7.86010195E-11-4.60755204E-15    2
-9.23948688E+02 5.87188762E+00 3.53100528E+00-1.23660988E-04-5.02999433E-07    3
 2.43530612E-09-1.40881235E-12-1.04697628E+03 2.96747038E+00                   4
Ne                L10/90Ne  1               G    200.0   6000.00  1000.0       1
 0.25000000E+01 0.00000000E+00 0.00000000E+00 0.00000000E+00 0.00000000E+00    2
-0.74537500E+03 0.33553227E+01 0.25000000E+01 0.00000000E+00 0.00000000E+00    3
 0.00000000E+00 0.00000000E+00-0.74537498E+03 0.33553227E+01                   4
He REF ELEMENT          He  1               G   200.000  6000.000 1000.        1
 2.50000000E+00 0.00000000E+00 0.00000000E+00 0.00000000E+00 0.00000000E+00    2
-7.45375000E+02 9.28723974E-01 2.50000000E+00 0.00000000E+00 0.00000000E+00    3
 0.00000000E+00 0.00000000E+00-7.45375000E+02 9.28723974E-01 0.00000000E+00    4

O2(1)                   C   0H   0O   2     G   300.000  5000.000   995.043    1
 3.31508547E+00 1.32006465E-03-5.32714395E-07 9.20149371E-11-5.75811318E-15    2
-4.13737693E+03-3.70016461E+00 3.54508403E+00-1.39003342E-03 6.24430868E-06    3
-6.25186428E-09 2.04119777E-12-4.09475551E+03-4.36446438E+00                   4

n-C11(2)                C  11H  24          G   300.000  5000.000   995.043    1
 2.60061484E+01 6.38892438E-02-2.28407483E-05 3.69027154E-09-2.21693293E-13    2
-5.80239318E+04-1.38371230E+02 2.80660224E+00 8.83404413E-02 4.40278881E-05    3
-1.10607521E-07 4.59558203E-11-5.00005844E+04-9.44507243E+00                   4

n-C13(3)                C  13H  28          G   300.000  5000.000   995.043    1
 3.07053495E+01 7.49686651E-02-2.68781610E-05 4.35126880E-09-2.61768180E-13    2
-6.66490692E+04-1.63438637E+02 2.58151103E+00 1.08998739E-01 4.09515605E-05    3
-1.20908911E-07 5.12624648E-11-5.71399763E+04-8.23864239E+00                   4

Mnphtln(4)              C  11H  10          G   300.000  5000.000   995.043    1
 1.99543052E+01 3.65535524E-02-1.29116584E-05 2.06136391E-09-1.22616726E-13    2
-7.29573120E+03-1.16746917E+02 2.91765803E+00 3.26525402E-02 1.02090605E-04    3
-1.48098918E-07 5.59730704E-11-3.21732507E+02-1.66325411E+01                   4

n-C16(5)                C  16H  34          G   300.000  5000.000   995.043    1
 3.77541511E+01 9.15877972E-02-3.29342801E-05 5.34276469E-09-3.21880512E-13    2
-7.94848493E+04-2.00697713E+02 2.24387421E+00 1.39986184E-01 3.63370692E-05    3
-1.36360995E-07 5.92224316E-11-6.77471382E+04-6.08696364E+00                   4

C10bnzn(6)              C  16H  26          G   300.000  5000.000   995.043    1
 3.57646840E+01 7.38090261E-02-2.64824772E-05 4.28846807E-09-2.57946794E-13    2
-4.92761573E+04-1.96199519E+02 2.20795129E+00 1.03781096E-01 8.65048752E-05    3
-1.77383310E-07 7.20111554E-11-3.74037859E+04-8.37358301E+00                   4

n-C19(7)                C  19H  40          G   300.000  5000.000   995.043    1
 4.48029527E+01 1.08206929E-01-3.89903992E-05 6.33426058E-09-3.81992844E-13    2
-9.22245648E+04-2.37634425E+02 1.90623740E+00 1.70973630E-01 3.17225778E-05    3
-1.51813080E-07 6.71823984E-11-7.82582354E+04-3.61292035E+00                   4

n-C21(8)                C  21H  44          G   300.000  5000.000   995.043    1
 4.95021538E+01 1.19286351E-01-4.30278119E-05 6.99525783E-09-4.22067732E-13    2
-1.00674436E+05-2.62113689E+02 1.68114619E+00 1.91631927E-01 2.86462502E-05    3
-1.62114469E-07 7.24890430E-11-8.52223609E+04-1.81834797E+00                   4

HO2J(9)                 C   0H   1O   2     G   300.000  5000.000   995.043    1
 3.24380419E+00 3.66065214E-03-1.26589715E-06 1.97776743E-10-1.15806423E-14    2
-6.30611553E+03-8.51072065E+00 4.03383318E+00-1.43110813E-03 9.29796195E-06    3
-8.81491966E-09 2.73898818E-12-6.36849042E+03-1.18416269E+01                   4

SPC(42)                 C  16H  25          G   300.000  5000.000   995.043    1
 3.52276567E+01 7.24578819E-02-2.57178347E-05 4.12778059E-09-2.46719165E-13    2
-3.17378822E+04-1.94581095E+02 2.04608900E+00 1.12496734E-01 5.46452407E-05    3
-1.43995589E-07 6.06563026E-11-2.05131941E+04-1.14426334E+01                   4

SPC(116)                C  16H  25O   2     G   300.000  5000.000   995.043    1
 3.93281701E+01 7.33811309E-02-2.62825804E-05 4.24850316E-09-2.55207399E-13    2
-4.45635920E+04-2.10347550E+02 1.91369136E+00 1.21552533E-01 5.52124514E-05    3
-1.53605444E-07 6.53467977E-11-3.20567389E+04-4.59892374E+00                   4

SPC(119)                C  16H  26O   2     G   300.000  5000.000   995.043    1
 4.13730003E+01 7.42453469E-02-2.67793704E-05 4.34872225E-09-2.62013537E-13    2
-6.36412791E+04-2.22974119E+02 1.86374216E+00 1.23303633E-01 6.47359727E-05    3
-1.67827944E-07 7.08502949E-11-5.03445736E+04-5.25564492E+00                   4

SPC(118)                C  16H  24          G   300.000  5000.000   995.043    1
 3.53752816E+01 6.91278701E-02-2.46548810E-05 3.97530308E-09-2.38388072E-13    2
-3.53058215E+04-1.92187787E+02 2.12163523E+00 1.02181435E-01 7.72052468E-05    3
-1.65898538E-07 6.79754192E-11-2.37066347E+04-6.89220312E+00                   4

H2O2(101)               C   0H   2O   2     G   300.000  5000.000   995.043    1
 5.16924380E+00 3.40955858E-03-1.00163571E-06 1.37410746E-10-7.24183505E-15    2
-2.36793419E+04-1.93989545E+01 3.81742358E+00 2.54032760E-03 9.81098709E-06    3
-1.34733297E-08 5.01192779E-12-2.30982626E+04-1.13158706E+01                   4

C11H9J(30)              C  11H   9          G   300.000  5000.000   995.043    1
 2.09447403E+01 3.31035326E-02-1.09946431E-05 1.66872551E-09-9.55340668E-14    2
 1.09177356E+04-1.23311147E+02 2.40968256E+00 3.92209220E-02 8.28829481E-05    3
-1.30303477E-07 5.04167544E-11 1.79921613E+04-1.69690268E+01                   4

SPC(205)                C  11H   9O   2     G   300.000  5000.000   995.043    1
 2.24632134E+01 3.73922606E-02-1.33627224E-05 2.14958613E-09-1.28559777E-13    2
 2.99484710E+01-1.24070763E+02 2.82206171E+00 5.33097506E-02 5.76709512E-05    3
-1.09110308E-07 4.38213306E-11 7.05945953E+03-1.37296613E+01                   4

SPC(208)                C  11H  10O   2     G   300.000  5000.000   995.043    1
 2.45080436E+01 3.82564765E-02-1.38595123E-05 2.24980521E-09-1.35365915E-13    2
-1.90477386E+04-1.36697331E+02 2.77211252E+00 5.50608512E-02 6.71944726E-05    3
-1.23332808E-07 4.93248278E-11-1.12283752E+04-1.43863825E+01                   4

SPC(180)                C  16H  23          G   300.000  5000.000   995.043    1
 3.50755169E+01 6.73924024E-02-2.41111336E-05 3.89325656E-09-2.33649931E-13    2
-1.82949710E+04-1.91920792E+02 2.14952896E+00 9.83690859E-02 8.20250918E-05    3
-1.69612826E-07 6.90855238E-11-6.72338086E+03-8.01535422E+00                   4

SPC(248)                C  16H  23O   2     G   300.000  5000.000   995.043    1
 3.99191980E+01 6.73849980E-02-2.40798120E-05 3.88835883E-09-2.33426332E-13    2
-3.11006054E+04-2.12487020E+02 1.82753153E+00 1.22523628E-01 4.05131149E-05    3
-1.38353997E-07 6.03690509E-11-1.86691362E+04-4.53070499E+00                   4

SPC(262)                C  16H  24O   2     G   300.000  5000.000   995.043    1
 4.19640282E+01 6.82492139E-02-2.45766020E-05 3.98857791E-09-2.40232471E-13    2
-5.01782925E+04-2.25113589E+02 1.77758233E+00 1.24274729E-01 5.00366362E-05    3
-1.52576497E-07 6.58725482E-11-3.69569709E+04-5.18742617E+00                   4

SPC(255)                C  16H  23O   2     G   300.000  5000.000   995.043    1
 3.81920832E+01 6.96739845E-02-2.50982592E-05 4.07324407E-09-2.45338692E-13    2
-3.04214487E+04-2.02940277E+02 2.05036700E+00 1.15017460E-01 5.72099610E-05    3
-1.52014183E-07 6.43321208E-11-1.82811789E+04-3.89495424E+00                   4

SPC(265)                C  16H  24O   2     G   300.000  5000.000   995.043    1
 4.02369134E+01 7.05382004E-02-2.55950492E-05 4.17346315E-09-2.52144831E-13    2
-4.94991358E+04-2.15566845E+02 2.00041780E+00 1.16768561E-01 6.67334823E-05    3
-1.66236683E-07 6.98356181E-11-3.65690137E+04-4.55167542E+00                   4

END

REACTIONS	KCAL/MOL	MOLES
HO2J(9)+SPC(42)=O2(1)+C10bnzn(6) 3.0000000e+11 	 0.00000 	 0.00000 	 !Disproportionation estimate: (Average of: (Y_rad O_Orad))  O_Orad     C_rad/H/OneDeC     
O2(1)+SPC(42)=SPC(116) 7.5400000e+12 	 0.00000 	 0.00000 	 !R_Addition_MultipleBond estimate: (Average of: (O2d C_sec_rad))  O2d     C_rad/H/OneDeC     
SPC(42)+HO2J(9)=SPC(119) 1.6424769e+13 	 -0.15000 	 0.31000 	 !R_Recombination estimate: (Average of: (Average of: (H_rad H_rad && Average of: (C_methyl C_methyl && Average of: (C_rad/H2/Cs C_rad/H2/Cs) && Average of: (C_rad/H/NonDeC C_rad/H/NonDeC) && Average of: (Average of: (C_rad/Cs3 C_rad/Cs3))) && Average of: (Cd_pri_rad Cd_pri_rad) && Cb_rad Cb_rad && Average of: (CO_pri_rad CO_pri_rad && Average of: (CO_rad/NonDe CO_rad/NonDe)) && Average of: (O_pri_rad O_pri_rad && Average of: (O_rad/NonDe O_rad/NonDe)))))  C_rad/H/OneDeC     O_rad/NonDe     
C10bnzn(6)+SPC(116)=SPC(42)+SPC(119) 3.1729268e+09 	 0.95000 	 5.64400 	 !H_Abstraction estimate: (Average of: (Average of: (C/H2/NonDeC O_pri_rad && Average of: (C/H2/NonDeC O_rad/NonDeC && C/H2/NonDeC O_rad/NonDeO))))  C/H2/OneDeC     O_rad/NonDeO     
SPC(116)+HO2J(9)=SPC(119)+O2(1) 1.7500000e+10 	 0.00000 	 -3.27500 	 !Disproportionation estimate: (Average of: (O_sec_rad O_Orad))  O_rad/NonDeO     O_Orad     
SPC(42)+SPC(42)=C10bnzn(6)+SPC(118) 1.0260000e+14 	 -0.35000 	 0.00000 	 !Disproportionation estimate: (Average of: (Average of: (C_rad/H/NonDeC C/H2/Nd_Csrad)))  C_rad/H/OneDeC     C/H2/Nd_Csrad     
O2(1)+SPC(42)=HO2J(9)+SPC(118) 3.6160000e+11 	 0.00000 	 0.00000 	 !Disproportionation_O2d exact:   O2d     C/H2/Nd_Csrad     
SPC(116)+SPC(42)=SPC(119)+SPC(118) 4.8200000e+13 	 0.00000 	 0.00000 	 !Disproportionation estimate: (Average of: (Average of: (O_pri_rad C/H2/Nd_Csrad)))  O_rad/NonDeO     C/H2/Nd_Csrad     
SPC(116)=>HO2J(9)+SPC(118) 8.0040557e+10 	 0.56333 	 29.80000 	 !HO2_Elimination_from_PeroxyRadical estimate: (Average of: (Average of: (R2OO_HNd_2H && R2OO_HNd_HNd && R2OO_HNd_NdNd)))  R2OO_HNd_HDe     
SPC(42)+H2O2(101)=C10bnzn(6)+HO2J(9) 2.9734435e+03 	 2.38600 	 9.69000 	 !H_Abstraction estimate: (Average of: (Average of: (O/H/NonDeC C_methyl && Average of: (O/H/NonDeC C_rad/H2/Cs) && Average of: (O/H/NonDeC C_rad/H/NonDeC) && Average of: (Average of: (O/H/NonDeC C_rad/Cs3)) && O/H/OneDe C_methyl)))  C_rad/H/OneDeC     O/H/NonDeO     
HO2J(9)+HO2J(9)=H2O2(101)+O2(1) 1.7500000e+10 	 0.00000 	 -3.27500 	 !Disproportionation estimate: (Average of: (O_sec_rad O_Orad))  O_rad/NonDeO     O_Orad     
HO2J(9)+SPC(42)=H2O2(101)+SPC(118) 4.8200000e+13 	 0.00000 	 0.00000 	 !Disproportionation estimate: (Average of: (Average of: (O_pri_rad C/H2/Nd_Csrad)))  O_rad/NonDeO     C/H2/Nd_Csrad     
SPC(116)+H2O2(101)=SPC(119)+HO2J(9) 3.4600000e+01 	 3.40000 	 -1.14000 	 !H_Abstraction estimate: (Average of: (Average of: (O/H/NonDeC O_pri_rad)))  O_rad/NonDeO     O/H/NonDeO     
HO2J(9)+C11H9J(30)=O2(1)+Mnphtln(4) 3.0000000e+11 	 0.00000 	 0.00000 	 !Disproportionation estimate: (Average of: (Y_rad O_Orad))  O_Orad     C_rad/H2/Cb     
C11H9J(30)+H2O2(101)=Mnphtln(4)+HO2J(9) 2.9734435e+03 	 2.38600 	 9.69000 	 !H_Abstraction estimate: (Average of: (Average of: (O/H/NonDeC C_methyl && Average of: (O/H/NonDeC C_rad/H2/Cs) && Average of: (O/H/NonDeC C_rad/H/NonDeC) && Average of: (Average of: (O/H/NonDeC C_rad/Cs3)) && O/H/OneDe C_methyl)))  C_rad/H2/Cb     O/H/NonDeO     
C11H9J(30)+C10bnzn(6)=Mnphtln(4)+SPC(42) 3.0397882e+06 	 1.88583 	 9.44833 	 !H_Abstraction estimate: (Average of: (Average of: (C/H2/NonDeC C_methyl && Average of: (C/H2/NonDeC C_rad/H2/Cs && C/H2/NonDeC C_rad/H2/O) && Average of: (C/H2/NonDeC C_rad/H/NonDeC) && Average of: (Average of: (C/H2/NonDeC C_rad/Cs3)) && Average of: (C/H2/OneDeC C_methyl) && C/H2/TwoDe C_methyl)))  C_rad/H2/Cb     C/H2/OneDeC     
C11H9J(30)+SPC(119)=Mnphtln(4)+SPC(116) 1.4867217e+03 	 2.38600 	 9.69000 	 !H_Abstraction estimate: (Average of: (Average of: (O/H/NonDeC C_methyl && Average of: (O/H/NonDeC C_rad/H2/Cs) && Average of: (O/H/NonDeC C_rad/H/NonDeC) && Average of: (Average of: (O/H/NonDeC C_rad/Cs3)) && O/H/OneDe C_methyl)))  C_rad/H2/Cb     O/H/NonDeO     
SPC(42)+C11H9J(30)=SPC(118)+Mnphtln(4) 2.0088970e+12 	 0.00000 	 -0.04333 	 !Disproportionation estimate: (Average of: (Average of: (C_rad/H2/Cs C/H2/Nd_Csrad && C_rad/H2/Cd C/H2/Nd_Csrad && C_rad/H2/O C/H2/Nd_Csrad)))  C/H2/Nd_Csrad     C_rad/H2/Cb     
O2(1)+C11H9J(30)=SPC(205) 4.5200000e+12 	 0.00000 	 0.00000 	 !R_Addition_MultipleBond estimate: (Average of: (O2d C_pri_rad))  O2d     C_rad/H2/Cb     
C11H9J(30)+HO2J(9)=SPC(208) 1.6424769e+13 	 -0.15000 	 0.31000 	 !R_Recombination estimate: (Average of: (Average of: (H_rad H_rad && Average of: (C_methyl C_methyl && Average of: (C_rad/H2/Cs C_rad/H2/Cs) && Average of: (C_rad/H/NonDeC C_rad/H/NonDeC) && Average of: (Average of: (C_rad/Cs3 C_rad/Cs3))) && Average of: (Cd_pri_rad Cd_pri_rad) && Cb_rad Cb_rad && Average of: (CO_pri_rad CO_pri_rad && Average of: (CO_rad/NonDe CO_rad/NonDe)) && Average of: (O_pri_rad O_pri_rad && Average of: (O_rad/NonDe O_rad/NonDe)))))  C_rad/H2/Cb     O_rad/NonDe     
C11H9J(30)+SPC(208)=Mnphtln(4)+SPC(205) 1.4867217e+03 	 2.38600 	 9.69000 	 !H_Abstraction estimate: (Average of: (Average of: (O/H/NonDeC C_methyl && Average of: (O/H/NonDeC C_rad/H2/Cs) && Average of: (O/H/NonDeC C_rad/H/NonDeC) && Average of: (Average of: (O/H/NonDeC C_rad/Cs3)) && O/H/OneDe C_methyl)))  C_rad/H2/Cb     O/H/NonDeO     
C10bnzn(6)+SPC(205)=SPC(42)+SPC(208) 3.1729268e+09 	 0.95000 	 5.64400 	 !H_Abstraction estimate: (Average of: (Average of: (C/H2/NonDeC O_pri_rad && Average of: (C/H2/NonDeC O_rad/NonDeC && C/H2/NonDeC O_rad/NonDeO))))  C/H2/OneDeC     O_rad/NonDeO     
SPC(119)+SPC(205)=SPC(116)+SPC(208) 1.7300000e+01 	 3.40000 	 -1.14000 	 !H_Abstraction estimate: (Average of: (Average of: (O/H/NonDeC O_pri_rad)))  O/H/NonDeO     O_rad/NonDeO     
H2O2(101)+SPC(205)=HO2J(9)+SPC(208) 3.4600000e+01 	 3.40000 	 -1.14000 	 !H_Abstraction estimate: (Average of: (Average of: (O/H/NonDeC O_pri_rad)))  O/H/NonDeO     O_rad/NonDeO     
SPC(205)+HO2J(9)=SPC(208)+O2(1) 1.7500000e+10 	 0.00000 	 -3.27500 	 !Disproportionation estimate: (Average of: (O_sec_rad O_Orad))  O_rad/NonDeO     O_Orad     
SPC(205)+SPC(42)=SPC(208)+SPC(118) 4.8200000e+13 	 0.00000 	 0.00000 	 !Disproportionation estimate: (Average of: (Average of: (O_pri_rad C/H2/Nd_Csrad)))  O_rad/NonDeO     C/H2/Nd_Csrad     
SPC(180)+H2O2(101)=SPC(118)+HO2J(9) 2.9734435e+03 	 2.38600 	 9.69000 	 !H_Abstraction estimate: (Average of: (Average of: (O/H/NonDeC C_methyl && Average of: (O/H/NonDeC C_rad/H2/Cs) && Average of: (O/H/NonDeC C_rad/H/NonDeC) && Average of: (Average of: (O/H/NonDeC C_rad/Cs3)) && O/H/OneDe C_methyl)))  C_rad/H/OneDeC     O/H/NonDeO     
SPC(118)+SPC(42)=SPC(180)+C10bnzn(6) 3.0397882e+06 	 1.88583 	 9.44833 	 !H_Abstraction estimate: (Average of: (Average of: (C/H2/NonDeC C_methyl && Average of: (C/H2/NonDeC C_rad/H2/Cs && C/H2/NonDeC C_rad/H2/O) && Average of: (C/H2/NonDeC C_rad/H/NonDeC) && Average of: (Average of: (C/H2/NonDeC C_rad/Cs3)) && Average of: (C/H2/OneDeC C_methyl) && C/H2/TwoDe C_methyl)))  C/H2/OneDeC     C_rad/H/OneDeC     
SPC(118)+SPC(116)=SPC(180)+SPC(119) 3.1729268e+09 	 0.95000 	 5.64400 	 !H_Abstraction estimate: (Average of: (Average of: (C/H2/NonDeC O_pri_rad && Average of: (C/H2/NonDeC O_rad/NonDeC && C/H2/NonDeC O_rad/NonDeO))))  C/H2/OneDeC     O_rad/NonDeO     
HO2J(9)+SPC(180)=O2(1)+SPC(118) 3.0000000e+11 	 0.00000 	 0.00000 	 !Disproportionation estimate: (Average of: (Disproportionation exact: ))  O_Orad     C_rad/H/OneDeC     
SPC(42)+SPC(180)=SPC(118)+SPC(118) 1.0260000e+14 	 -0.35000 	 0.00000 	 !Disproportionation estimate: (Average of: (Average of: (C_rad/H/NonDeC C/H2/Nd_Csrad)))  C/H2/Nd_Csrad     C_rad/H/OneDeC     
SPC(118)+C11H9J(30)=SPC(180)+Mnphtln(4) 3.0397882e+06 	 1.88583 	 9.44833 	 !H_Abstraction estimate: (Average of: (Average of: (C/H2/NonDeC C_methyl && Average of: (C/H2/NonDeC C_rad/H2/Cs && C/H2/NonDeC C_rad/H2/O) && Average of: (C/H2/NonDeC C_rad/H/NonDeC) && Average of: (Average of: (C/H2/NonDeC C_rad/Cs3)) && Average of: (C/H2/OneDeC C_methyl) && C/H2/TwoDe C_methyl)))  C/H2/OneDeC     C_rad/H2/Cb     
SPC(118)+SPC(205)=SPC(180)+SPC(208) 3.1729268e+09 	 0.95000 	 5.64400 	 !H_Abstraction estimate: (Average of: (Average of: (C/H2/NonDeC O_pri_rad && Average of: (C/H2/NonDeC O_rad/NonDeC && C/H2/NonDeC O_rad/NonDeO))))  C/H2/OneDeC     O_rad/NonDeO     
O2(1)+SPC(180)=SPC(248) 7.5400000e+12 	 0.00000 	 0.00000 	 !R_Addition_MultipleBond estimate: (Average of: (O2d C_sec_rad))  O2d     C_rad/H/OneDeC     
SPC(180)+HO2J(9)=SPC(262) 1.6424769e+13 	 -0.15000 	 0.31000 	 !R_Recombination estimate: (Average of: (Average of: (H_rad H_rad && Average of: (C_methyl C_methyl && Average of: (C_rad/H2/Cs C_rad/H2/Cs) && Average of: (C_rad/H/NonDeC C_rad/H/NonDeC) && Average of: (Average of: (C_rad/Cs3 C_rad/Cs3))) && Average of: (Cd_pri_rad Cd_pri_rad) && Cb_rad Cb_rad && Average of: (CO_pri_rad CO_pri_rad && Average of: (CO_rad/NonDe CO_rad/NonDe)) && Average of: (O_pri_rad O_pri_rad && Average of: (O_rad/NonDe O_rad/NonDe)))))  C_rad/H/OneDeC     O_rad/NonDe     
C11H9J(30)+SPC(262)=Mnphtln(4)+SPC(248) 1.4867217e+03 	 2.38600 	 9.69000 	 !H_Abstraction estimate: (Average of: (Average of: (O/H/NonDeC C_methyl && Average of: (O/H/NonDeC C_rad/H2/Cs) && Average of: (O/H/NonDeC C_rad/H/NonDeC) && Average of: (Average of: (O/H/NonDeC C_rad/Cs3)) && O/H/OneDe C_methyl)))  C_rad/H2/Cb     O/H/NonDeO     
C10bnzn(6)+SPC(248)=SPC(42)+SPC(262) 3.1729268e+09 	 0.95000 	 5.64400 	 !H_Abstraction estimate: (Average of: (Average of: (C/H2/NonDeC O_pri_rad && Average of: (C/H2/NonDeC O_rad/NonDeC && C/H2/NonDeC O_rad/NonDeO))))  C/H2/OneDeC     O_rad/NonDeO     
SPC(119)+SPC(248)=SPC(116)+SPC(262) 1.7300000e+01 	 3.40000 	 -1.14000 	 !H_Abstraction estimate: (Average of: (Average of: (O/H/NonDeC O_pri_rad)))  O/H/NonDeO     O_rad/NonDeO     
SPC(118)+SPC(248)=SPC(180)+SPC(262) 3.1729268e+09 	 0.95000 	 5.64400 	 !H_Abstraction estimate: (Average of: (Average of: (C/H2/NonDeC O_pri_rad && Average of: (C/H2/NonDeC O_rad/NonDeC && C/H2/NonDeC O_rad/NonDeO))))  C/H2/OneDeC     O_rad/NonDeO     
H2O2(101)+SPC(248)=HO2J(9)+SPC(262) 3.4600000e+01 	 3.40000 	 -1.14000 	 !H_Abstraction estimate: (Average of: (Average of: (O/H/NonDeC O_pri_rad)))  O/H/NonDeO     O_rad/NonDeO     
SPC(208)+SPC(248)=SPC(205)+SPC(262) 1.7300000e+01 	 3.40000 	 -1.14000 	 !H_Abstraction estimate: (Average of: (Average of: (O/H/NonDeC O_pri_rad)))  O/H/NonDeO     O_rad/NonDeO     
SPC(248)+HO2J(9)=SPC(262)+O2(1) 1.7500000e+10 	 0.00000 	 -3.27500 	 !Disproportionation estimate: (Average of: (O_sec_rad O_Orad))  O_rad/NonDeO     O_Orad     
SPC(248)+SPC(42)=SPC(262)+SPC(118) 4.8200000e+13 	 0.00000 	 0.00000 	 !Disproportionation estimate: (Average of: (Average of: (O_pri_rad C/H2/Nd_Csrad)))  O_rad/NonDeO     C/H2/Nd_Csrad     
O2(1)+SPC(180)=SPC(255) 7.5400000e+12 	 0.00000 	 0.00000 	 !R_Addition_MultipleBond estimate: (Average of: (O2d C_sec_rad))  O2d     C_rad/H/TwoDe     
SPC(180)+HO2J(9)=SPC(265) 1.6424769e+13 	 -0.15000 	 0.31000 	 !R_Recombination estimate: (Average of: (Average of: (H_rad H_rad && Average of: (C_methyl C_methyl && Average of: (C_rad/H2/Cs C_rad/H2/Cs) && Average of: (C_rad/H/NonDeC C_rad/H/NonDeC) && Average of: (Average of: (C_rad/Cs3 C_rad/Cs3))) && Average of: (Cd_pri_rad Cd_pri_rad) && Cb_rad Cb_rad && Average of: (CO_pri_rad CO_pri_rad && Average of: (CO_rad/NonDe CO_rad/NonDe)) && Average of: (O_pri_rad O_pri_rad && Average of: (O_rad/NonDe O_rad/NonDe)))))  C_rad/H/TwoDe     O_rad/NonDe     
C11H9J(30)+SPC(265)=Mnphtln(4)+SPC(255) 1.4867217e+03 	 2.38600 	 9.69000 	 !H_Abstraction estimate: (Average of: (Average of: (O/H/NonDeC C_methyl && Average of: (O/H/NonDeC C_rad/H2/Cs) && Average of: (O/H/NonDeC C_rad/H/NonDeC) && Average of: (Average of: (O/H/NonDeC C_rad/Cs3)) && O/H/OneDe C_methyl)))  C_rad/H2/Cb     O/H/NonDeO     
C10bnzn(6)+SPC(255)=SPC(42)+SPC(265) 3.1729268e+09 	 0.95000 	 5.64400 	 !H_Abstraction estimate: (Average of: (Average of: (C/H2/NonDeC O_pri_rad && Average of: (C/H2/NonDeC O_rad/NonDeC && C/H2/NonDeC O_rad/NonDeO))))  C/H2/OneDeC     O_rad/NonDeO     
SPC(119)+SPC(255)=SPC(116)+SPC(265) 1.7300000e+01 	 3.40000 	 -1.14000 	 !H_Abstraction estimate: (Average of: (Average of: (O/H/NonDeC O_pri_rad)))  O/H/NonDeO     O_rad/NonDeO     
SPC(118)+SPC(255)=SPC(180)+SPC(265) 3.1729268e+09 	 0.95000 	 5.64400 	 !H_Abstraction estimate: (Average of: (Average of: (C/H2/NonDeC O_pri_rad && Average of: (C/H2/NonDeC O_rad/NonDeC && C/H2/NonDeC O_rad/NonDeO))))  C/H2/OneDeC     O_rad/NonDeO     
H2O2(101)+SPC(255)=HO2J(9)+SPC(265) 3.4600000e+01 	 3.40000 	 -1.14000 	 !H_Abstraction estimate: (Average of: (Average of: (O/H/NonDeC O_pri_rad)))  O/H/NonDeO     O_rad/NonDeO     
SPC(208)+SPC(255)=SPC(205)+SPC(265) 1.7300000e+01 	 3.40000 	 -1.14000 	 !H_Abstraction estimate: (Average of: (Average of: (O/H/NonDeC O_pri_rad)))  O/H/NonDeO     O_rad/NonDeO     
SPC(262)+SPC(255)=SPC(248)+SPC(265) 1.7300000e+01 	 3.40000 	 -1.14000 	 !H_Abstraction estimate: (Average of: (Average of: (O/H/NonDeC O_pri_rad)))  O/H/NonDeO     O_rad/NonDeO     
SPC(255)+HO2J(9)=SPC(265)+O2(1) 1.7500000e+10 	 0.00000 	 -3.27500 	 !Disproportionation estimate: (Average of: (O_sec_rad O_Orad))  O_rad/NonDeO     O_Orad     
SPC(255)+SPC(42)=SPC(265)+SPC(118) 4.8200000e+13 	 0.00000 	 0.00000 	 !Disproportionation estimate: (Average of: (Average of: (O_pri_rad C/H2/Nd_Csrad)))  O_rad/NonDeO     C/H2/Nd_Csrad     
END
