#
# Generated from file chem.inp
# by ck2cti on Sat Mar 13 16:49:51 2010
#
units(length = "cm", time = "s", quantity = "mol", act_energy = "cal/mol")


ideal_gas(name = "chem",
      elements = " H  C  O  N  Ne  Ar  He  Si  S ",
      species = """ Ar  N2  O2(1)  n-C11(2)  n-C13(3)  Mnphtln(4)  n-C16(5)  C10bnzn(6)  n-C19(7)  n-C21(8) 
                   HO2J(9)  SPC(42)  SPC(116)  SPC(119)  SPC(118)  H2O2(101)  C11H9J(30)  SPC(205)  SPC(208)  SPC(180) 
                   SPC(248)  SPC(262)  SPC(255)  SPC(265) """,
      reactions = "all",
      initial_state = state(temperature = 300.0,
                        pressure = OneAtm)    )



#-------------------------------------------------------------------------------
#  Species data 
#-------------------------------------------------------------------------------

species(name = "Ar",
    atoms = " Ar:1 ",
    thermo = (
       NASA( [  200.00,  1000.00], [  2.500000000E+00,   0.000000000E+00, 
                0.000000000E+00,   0.000000000E+00,   0.000000000E+00,
               -7.453750000E+02,   4.379674900E+00] ),
       NASA( [ 1000.00,  6000.00], [  2.500000000E+00,   0.000000000E+00, 
                0.000000000E+00,   0.000000000E+00,   0.000000000E+00,
               -7.453750000E+02,   4.379674900E+00] )
             ),
    note = "L 6/88"
       )

species(name = "N2",
    atoms = " N:2 ",
    thermo = (
       NASA( [  200.00,  1000.00], [  3.531005280E+00,  -1.236609880E-04, 
               -5.029994330E-07,   2.435306120E-09,  -1.408812350E-12,
               -1.046976280E+03,   2.967470380E+00] ),
       NASA( [ 1000.00,  6000.00], [  2.952576370E+00,   1.396900400E-03, 
               -4.926316030E-07,   7.860101950E-11,  -4.607552040E-15,
               -9.239486880E+02,   5.871887620E+00] )
             ),
    note = "G 8/02"
       )

species(name = "O2(1)",
    atoms = " O:2 ",
    thermo = (
       NASA( [  300.00,   995.00], [  3.545084030E+00,  -1.390033420E-03, 
                6.244308680E-06,  -6.251864280E-09,   2.041197770E-12,
               -4.094755510E+03,  -4.364464380E+00] ),
       NASA( [  995.00,  5000.00], [  3.315085470E+00,   1.320064650E-03, 
               -5.327143950E-07,   9.201493710E-11,  -5.758113180E-15,
               -4.137376930E+03,  -3.700164610E+00] )
             )
       )

species(name = "n-C11(2)",
    atoms = " C:11  H:24 ",
    thermo = (
       NASA( [  300.00,   995.00], [  2.806602240E+00,   8.834044130E-02, 
                4.402788810E-05,  -1.106075210E-07,   4.595582030E-11,
               -5.000058440E+04,  -9.445072430E+00] ),
       NASA( [  995.00,  5000.00], [  2.600614840E+01,   6.388924380E-02, 
               -2.284074830E-05,   3.690271540E-09,  -2.216932930E-13,
               -5.802393180E+04,  -1.383712300E+02] )
             )
       )

species(name = "n-C13(3)",
    atoms = " C:13  H:28 ",
    thermo = (
       NASA( [  300.00,   995.00], [  2.581511030E+00,   1.089987390E-01, 
                4.095156050E-05,  -1.209089110E-07,   5.126246480E-11,
               -5.713997630E+04,  -8.238642390E+00] ),
       NASA( [  995.00,  5000.00], [  3.070534950E+01,   7.496866510E-02, 
               -2.687816100E-05,   4.351268800E-09,  -2.617681800E-13,
               -6.664906920E+04,  -1.634386370E+02] )
             )
       )

species(name = "Mnphtln(4)",
    atoms = " C:11  H:10 ",
    thermo = (
       NASA( [  300.00,   995.00], [  2.917658030E+00,   3.265254020E-02, 
                1.020906050E-04,  -1.480989180E-07,   5.597307040E-11,
               -3.217325070E+02,  -1.663254110E+01] ),
       NASA( [  995.00,  5000.00], [  1.995430520E+01,   3.655355240E-02, 
               -1.291165840E-05,   2.061363910E-09,  -1.226167260E-13,
               -7.295731200E+03,  -1.167469170E+02] )
             )
       )

species(name = "n-C16(5)",
    atoms = " C:16  H:34 ",
    thermo = (
       NASA( [  300.00,   995.00], [  2.243874210E+00,   1.399861840E-01, 
                3.633706920E-05,  -1.363609950E-07,   5.922243160E-11,
               -6.774713820E+04,  -6.086963640E+00] ),
       NASA( [  995.00,  5000.00], [  3.775415110E+01,   9.158779720E-02, 
               -3.293428010E-05,   5.342764690E-09,  -3.218805120E-13,
               -7.948484930E+04,  -2.006977130E+02] )
             )
       )

species(name = "C10bnzn(6)",
    atoms = " C:16  H:26 ",
    thermo = (
       NASA( [  300.00,   995.00], [  2.207951290E+00,   1.037810960E-01, 
                8.650487520E-05,  -1.773833100E-07,   7.201115540E-11,
               -3.740378590E+04,  -8.373583010E+00] ),
       NASA( [  995.00,  5000.00], [  3.576468400E+01,   7.380902610E-02, 
               -2.648247720E-05,   4.288468070E-09,  -2.579467940E-13,
               -4.927615730E+04,  -1.961995190E+02] )
             )
       )

species(name = "n-C19(7)",
    atoms = " C:19  H:40 ",
    thermo = (
       NASA( [  300.00,   995.00], [  1.906237400E+00,   1.709736300E-01, 
                3.172257780E-05,  -1.518130800E-07,   6.718239840E-11,
               -7.825823540E+04,  -3.612920350E+00] ),
       NASA( [  995.00,  5000.00], [  4.480295270E+01,   1.082069290E-01, 
               -3.899039920E-05,   6.334260580E-09,  -3.819928440E-13,
               -9.222456480E+04,  -2.376344250E+02] )
             )
       )

species(name = "n-C21(8)",
    atoms = " C:21  H:44 ",
    thermo = (
       NASA( [  300.00,   995.00], [  1.681146190E+00,   1.916319270E-01, 
                2.864625020E-05,  -1.621144690E-07,   7.248904300E-11,
               -8.522236090E+04,  -1.818347970E+00] ),
       NASA( [  995.00,  5000.00], [  4.950215380E+01,   1.192863510E-01, 
               -4.302781190E-05,   6.995257830E-09,  -4.220677320E-13,
               -1.006744360E+05,  -2.621136890E+02] )
             )
       )

species(name = "HO2J(9)",
    atoms = " H:1  O:2 ",
    thermo = (
       NASA( [  300.00,   995.00], [  4.033833180E+00,  -1.431108130E-03, 
                9.297961950E-06,  -8.814919660E-09,   2.738988180E-12,
               -6.368490420E+03,  -1.184162690E+01] ),
       NASA( [  995.00,  5000.00], [  3.243804190E+00,   3.660652140E-03, 
               -1.265897150E-06,   1.977767430E-10,  -1.158064230E-14,
               -6.306115530E+03,  -8.510720650E+00] )
             )
       )

species(name = "SPC(42)",
    atoms = " C:16  H:25 ",
    thermo = (
       NASA( [  300.00,   995.00], [  2.046089000E+00,   1.124967340E-01, 
                5.464524070E-05,  -1.439955890E-07,   6.065630260E-11,
               -2.051319410E+04,  -1.144263340E+01] ),
       NASA( [  995.00,  5000.00], [  3.522765670E+01,   7.245788190E-02, 
               -2.571783470E-05,   4.127780590E-09,  -2.467191650E-13,
               -3.173788220E+04,  -1.945810950E+02] )
             )
       )

species(name = "SPC(116)",
    atoms = " C:16  H:25  O:2 ",
    thermo = (
       NASA( [  300.00,   995.00], [  1.913691360E+00,   1.215525330E-01, 
                5.521245140E-05,  -1.536054440E-07,   6.534679770E-11,
               -3.205673890E+04,  -4.598923740E+00] ),
       NASA( [  995.00,  5000.00], [  3.932817010E+01,   7.338113090E-02, 
               -2.628258040E-05,   4.248503160E-09,  -2.552073990E-13,
               -4.456359200E+04,  -2.103475500E+02] )
             )
       )

species(name = "SPC(119)",
    atoms = " C:16  H:26  O:2 ",
    thermo = (
       NASA( [  300.00,   995.00], [  1.863742160E+00,   1.233036330E-01, 
                6.473597270E-05,  -1.678279440E-07,   7.085029490E-11,
               -5.034457360E+04,  -5.255644920E+00] ),
       NASA( [  995.00,  5000.00], [  4.137300030E+01,   7.424534690E-02, 
               -2.677937040E-05,   4.348722250E-09,  -2.620135370E-13,
               -6.364127910E+04,  -2.229741190E+02] )
             )
       )

species(name = "SPC(118)",
    atoms = " C:16  H:24 ",
    thermo = (
       NASA( [  300.00,   995.00], [  2.121635230E+00,   1.021814350E-01, 
                7.720524680E-05,  -1.658985380E-07,   6.797541920E-11,
               -2.370663470E+04,  -6.892203120E+00] ),
       NASA( [  995.00,  5000.00], [  3.537528160E+01,   6.912787010E-02, 
               -2.465488100E-05,   3.975303080E-09,  -2.383880720E-13,
               -3.530582150E+04,  -1.921877870E+02] )
             )
       )

species(name = "H2O2(101)",
    atoms = " H:2  O:2 ",
    thermo = (
       NASA( [  300.00,   995.00], [  3.817423580E+00,   2.540327600E-03, 
                9.810987090E-06,  -1.347332970E-08,   5.011927790E-12,
               -2.309826260E+04,  -1.131587060E+01] ),
       NASA( [  995.00,  5000.00], [  5.169243800E+00,   3.409558580E-03, 
               -1.001635710E-06,   1.374107460E-10,  -7.241835050E-15,
               -2.367934190E+04,  -1.939895450E+01] )
             )
       )

species(name = "C11H9J(30)",
    atoms = " C:11  H:9 ",
    thermo = (
       NASA( [  300.00,   995.00], [  2.409682560E+00,   3.922092200E-02, 
                8.288294810E-05,  -1.303034770E-07,   5.041675440E-11,
                1.799216130E+04,  -1.696902680E+01] ),
       NASA( [  995.00,  5000.00], [  2.094474030E+01,   3.310353260E-02, 
               -1.099464310E-05,   1.668725510E-09,  -9.553406680E-14,
                1.091773560E+04,  -1.233111470E+02] )
             )
       )

species(name = "SPC(205)",
    atoms = " C:11  H:9  O:2 ",
    thermo = (
       NASA( [  300.00,   995.00], [  2.822061710E+00,   5.330975060E-02, 
                5.767095120E-05,  -1.091103080E-07,   4.382133060E-11,
                7.059459530E+03,  -1.372966130E+01] ),
       NASA( [  995.00,  5000.00], [  2.246321340E+01,   3.739226060E-02, 
               -1.336272240E-05,   2.149586130E-09,  -1.285597770E-13,
                2.994847100E+01,  -1.240707630E+02] )
             )
       )

species(name = "SPC(208)",
    atoms = " C:11  H:10  O:2 ",
    thermo = (
       NASA( [  300.00,   995.00], [  2.772112520E+00,   5.506085120E-02, 
                6.719447260E-05,  -1.233328080E-07,   4.932482780E-11,
               -1.122837520E+04,  -1.438638250E+01] ),
       NASA( [  995.00,  5000.00], [  2.450804360E+01,   3.825647650E-02, 
               -1.385951230E-05,   2.249805210E-09,  -1.353659150E-13,
               -1.904773860E+04,  -1.366973310E+02] )
             )
       )

species(name = "SPC(180)",
    atoms = " C:16  H:23 ",
    thermo = (
       NASA( [  300.00,   995.00], [  2.149528960E+00,   9.836908590E-02, 
                8.202509180E-05,  -1.696128260E-07,   6.908552380E-11,
               -6.723380860E+03,  -8.015354220E+00] ),
       NASA( [  995.00,  5000.00], [  3.507551690E+01,   6.739240240E-02, 
               -2.411113360E-05,   3.893256560E-09,  -2.336499310E-13,
               -1.829497100E+04,  -1.919207920E+02] )
             )
       )

species(name = "SPC(248)",
    atoms = " C:16  H:23  O:2 ",
    thermo = (
       NASA( [  300.00,   995.00], [  1.827531530E+00,   1.225236280E-01, 
                4.051311490E-05,  -1.383539970E-07,   6.036905090E-11,
               -1.866913620E+04,  -4.530704990E+00] ),
       NASA( [  995.00,  5000.00], [  3.991919800E+01,   6.738499800E-02, 
               -2.407981200E-05,   3.888358830E-09,  -2.334263320E-13,
               -3.110060540E+04,  -2.124870200E+02] )
             )
       )

species(name = "SPC(262)",
    atoms = " C:16  H:24  O:2 ",
    thermo = (
       NASA( [  300.00,   995.00], [  1.777582330E+00,   1.242747290E-01, 
                5.003663620E-05,  -1.525764970E-07,   6.587254820E-11,
               -3.695697090E+04,  -5.187426170E+00] ),
       NASA( [  995.00,  5000.00], [  4.196402820E+01,   6.824921390E-02, 
               -2.457660200E-05,   3.988577910E-09,  -2.402324710E-13,
               -5.017829250E+04,  -2.251135890E+02] )
             )
       )

species(name = "SPC(255)",
    atoms = " C:16  H:23  O:2 ",
    thermo = (
       NASA( [  300.00,   995.00], [  2.050367000E+00,   1.150174600E-01, 
                5.720996100E-05,  -1.520141830E-07,   6.433212080E-11,
               -1.828117890E+04,  -3.894954240E+00] ),
       NASA( [  995.00,  5000.00], [  3.819208320E+01,   6.967398450E-02, 
               -2.509825920E-05,   4.073244070E-09,  -2.453386920E-13,
               -3.042144870E+04,  -2.029402770E+02] )
             )
       )

species(name = "SPC(265)",
    atoms = " C:16  H:24  O:2 ",
    thermo = (
       NASA( [  300.00,   995.00], [  2.000417800E+00,   1.167685610E-01, 
                6.673348230E-05,  -1.662366830E-07,   6.983561810E-11,
               -3.656901370E+04,  -4.551675420E+00] ),
       NASA( [  995.00,  5000.00], [  4.023691340E+01,   7.053820040E-02, 
               -2.559504920E-05,   4.173463150E-09,  -2.521448310E-13,
               -4.949913580E+04,  -2.155668450E+02] )
             )
       )



#-------------------------------------------------------------------------------
#  Reaction data 
#-------------------------------------------------------------------------------

#  Reaction 1
# Disproportionation estimate: (Average of: (Y_rad O_Orad))  O_Orad     C_rad/H/OneDeC      
reaction(  "HO2J(9) + SPC(42) <=> O2(1) + C10bnzn(6)",  [3.00000E+11, 0, 0])

#  Reaction 2
# R_Addition_MultipleBond estimate: (Average of: (O2d C_sec_rad))  O2d     C_rad/H/OneDeC      
reaction(  "O2(1) + SPC(42) <=> SPC(116)",  [7.54000E+12, 0, 0])

#  Reaction 3
# R_Recombination estimate: (Average of: (Average of: (H_rad H_rad && Average of: (C_methyl C_methyl && Average of: (C_rad/H2/Cs C_rad/H2/Cs) && Average of: (C_rad/H/NonDeC C_rad/H/NonDeC) && Average of: (Average of: (C_rad/Cs3 C_rad/Cs3))) && Average of: (Cd_pri_rad Cd_pri_rad) && Cb_rad Cb_rad && Average of: (CO_pri_rad CO_pri_rad && Average of: (CO_rad/NonDe CO_rad/NonDe)) && Average of: (O_pri_rad O_pri_rad && Average of: (O_rad/NonDe O_rad/NonDe)))))  C_rad/H/OneDeC     O_rad/NonDe      
reaction(  "SPC(42) + HO2J(9) <=> SPC(119)",  [1.64248E+13, -0.15, 0.31])

#  Reaction 4
# H_Abstraction estimate: (Average of: (Average of: (C/H2/NonDeC O_pri_rad && Average of: (C/H2/NonDeC O_rad/NonDeC && C/H2/NonDeC O_rad/NonDeO))))  C/H2/OneDeC     O_rad/NonDeO      
reaction(  "C10bnzn(6) + SPC(116) <=> SPC(42) + SPC(119)",  [3.17293E+09, 0.95, 5.644])

#  Reaction 5
# Disproportionation estimate: (Average of: (O_sec_rad O_Orad))  O_rad/NonDeO     O_Orad      
reaction(  "SPC(116) + HO2J(9) <=> SPC(119) + O2(1)",  [1.75000E+10, 0, -3.275])

#  Reaction 6
# Disproportionation estimate: (Average of: (Average of: (C_rad/H/NonDeC C/H2/Nd_Csrad)))  C_rad/H/OneDeC     C/H2/Nd_Csrad      
reaction(  "SPC(42) + SPC(42) <=> C10bnzn(6) + SPC(118)",  [1.02600E+14, -0.35, 0])

#  Reaction 7
# Disproportionation_O2d exact:   O2d     C/H2/Nd_Csrad      
reaction(  "O2(1) + SPC(42) <=> HO2J(9) + SPC(118)",  [3.61600E+11, 0, 0])

#  Reaction 8
# Disproportionation estimate: (Average of: (Average of: (O_pri_rad C/H2/Nd_Csrad)))  O_rad/NonDeO     C/H2/Nd_Csrad      
reaction(  "SPC(116) + SPC(42) <=> SPC(119) + SPC(118)",  [4.82000E+13, 0, 0])

#  Reaction 9
# HO2_Elimination_from_PeroxyRadical estimate: (Average of: (Average of: (R2OO_HNd_2H && R2OO_HNd_HNd && R2OO_HNd_NdNd)))  R2OO_HNd_HDe      
reaction(  "SPC(116) => HO2J(9) + SPC(118)",  [8.00406E+10, 0.56333, 29.8])

#  Reaction 10
# H_Abstraction estimate: (Average of: (Average of: (O/H/NonDeC C_methyl && Average of: (O/H/NonDeC C_rad/H2/Cs) && Average of: (O/H/NonDeC C_rad/H/NonDeC) && Average of: (Average of: (O/H/NonDeC C_rad/Cs3)) && O/H/OneDe C_methyl)))  C_rad/H/OneDeC     O/H/NonDeO      
reaction(  "SPC(42) + H2O2(101) <=> C10bnzn(6) + HO2J(9)",  [2.97344E+03, 2.386, 9.69])

#  Reaction 11
# Disproportionation estimate: (Average of: (O_sec_rad O_Orad))  O_rad/NonDeO     O_Orad      
reaction(  "HO2J(9) + HO2J(9) <=> H2O2(101) + O2(1)",  [1.75000E+10, 0, -3.275])

#  Reaction 12
# Disproportionation estimate: (Average of: (Average of: (O_pri_rad C/H2/Nd_Csrad)))  O_rad/NonDeO     C/H2/Nd_Csrad      
reaction(  "HO2J(9) + SPC(42) <=> H2O2(101) + SPC(118)",  [4.82000E+13, 0, 0])

#  Reaction 13
# H_Abstraction estimate: (Average of: (Average of: (O/H/NonDeC O_pri_rad)))  O_rad/NonDeO     O/H/NonDeO      
reaction(  "SPC(116) + H2O2(101) <=> SPC(119) + HO2J(9)",  [3.46000E+01, 3.4, -1.14])

#  Reaction 14
# Disproportionation estimate: (Average of: (Y_rad O_Orad))  O_Orad     C_rad/H2/Cb      
reaction(  "HO2J(9) + C11H9J(30) <=> O2(1) + Mnphtln(4)",  [3.00000E+11, 0, 0])

#  Reaction 15
# H_Abstraction estimate: (Average of: (Average of: (O/H/NonDeC C_methyl && Average of: (O/H/NonDeC C_rad/H2/Cs) && Average of: (O/H/NonDeC C_rad/H/NonDeC) && Average of: (Average of: (O/H/NonDeC C_rad/Cs3)) && O/H/OneDe C_methyl)))  C_rad/H2/Cb     O/H/NonDeO      
reaction(  "C11H9J(30) + H2O2(101) <=> Mnphtln(4) + HO2J(9)",  [2.97344E+03, 2.386, 9.69])

#  Reaction 16
# H_Abstraction estimate: (Average of: (Average of: (C/H2/NonDeC C_methyl && Average of: (C/H2/NonDeC C_rad/H2/Cs && C/H2/NonDeC C_rad/H2/O) && Average of: (C/H2/NonDeC C_rad/H/NonDeC) && Average of: (Average of: (C/H2/NonDeC C_rad/Cs3)) && Average of: (C/H2/OneDeC C_methyl) && C/H2/TwoDe C_methyl)))  C_rad/H2/Cb     C/H2/OneDeC      
reaction(  "C11H9J(30) + C10bnzn(6) <=> Mnphtln(4) + SPC(42)",  [3.03979E+06, 1.88583, 9.44833])

#  Reaction 17
# H_Abstraction estimate: (Average of: (Average of: (O/H/NonDeC C_methyl && Average of: (O/H/NonDeC C_rad/H2/Cs) && Average of: (O/H/NonDeC C_rad/H/NonDeC) && Average of: (Average of: (O/H/NonDeC C_rad/Cs3)) && O/H/OneDe C_methyl)))  C_rad/H2/Cb     O/H/NonDeO      
reaction(  "C11H9J(30) + SPC(119) <=> Mnphtln(4) + SPC(116)",  [1.48672E+03, 2.386, 9.69])

#  Reaction 18
# Disproportionation estimate: (Average of: (Average of: (C_rad/H2/Cs C/H2/Nd_Csrad && C_rad/H2/Cd C/H2/Nd_Csrad && C_rad/H2/O C/H2/Nd_Csrad)))  C/H2/Nd_Csrad     C_rad/H2/Cb      
reaction(  "SPC(42) + C11H9J(30) <=> SPC(118) + Mnphtln(4)",  [2.00890E+12, 0, -0.04333])

#  Reaction 19
# R_Addition_MultipleBond estimate: (Average of: (O2d C_pri_rad))  O2d     C_rad/H2/Cb      
reaction(  "O2(1) + C11H9J(30) <=> SPC(205)",  [4.52000E+12, 0, 0])

#  Reaction 20
# R_Recombination estimate: (Average of: (Average of: (H_rad H_rad && Average of: (C_methyl C_methyl && Average of: (C_rad/H2/Cs C_rad/H2/Cs) && Average of: (C_rad/H/NonDeC C_rad/H/NonDeC) && Average of: (Average of: (C_rad/Cs3 C_rad/Cs3))) && Average of: (Cd_pri_rad Cd_pri_rad) && Cb_rad Cb_rad && Average of: (CO_pri_rad CO_pri_rad && Average of: (CO_rad/NonDe CO_rad/NonDe)) && Average of: (O_pri_rad O_pri_rad && Average of: (O_rad/NonDe O_rad/NonDe)))))  C_rad/H2/Cb     O_rad/NonDe      
reaction(  "C11H9J(30) + HO2J(9) <=> SPC(208)",  [1.64248E+13, -0.15, 0.31])

#  Reaction 21
# H_Abstraction estimate: (Average of: (Average of: (O/H/NonDeC C_methyl && Average of: (O/H/NonDeC C_rad/H2/Cs) && Average of: (O/H/NonDeC C_rad/H/NonDeC) && Average of: (Average of: (O/H/NonDeC C_rad/Cs3)) && O/H/OneDe C_methyl)))  C_rad/H2/Cb     O/H/NonDeO      
reaction(  "C11H9J(30) + SPC(208) <=> Mnphtln(4) + SPC(205)",  [1.48672E+03, 2.386, 9.69])

#  Reaction 22
# H_Abstraction estimate: (Average of: (Average of: (C/H2/NonDeC O_pri_rad && Average of: (C/H2/NonDeC O_rad/NonDeC && C/H2/NonDeC O_rad/NonDeO))))  C/H2/OneDeC     O_rad/NonDeO      
reaction(  "C10bnzn(6) + SPC(205) <=> SPC(42) + SPC(208)",  [3.17293E+09, 0.95, 5.644])

#  Reaction 23
# H_Abstraction estimate: (Average of: (Average of: (O/H/NonDeC O_pri_rad)))  O/H/NonDeO     O_rad/NonDeO      
reaction(  "SPC(119) + SPC(205) <=> SPC(116) + SPC(208)",  [1.73000E+01, 3.4, -1.14])

#  Reaction 24
# H_Abstraction estimate: (Average of: (Average of: (O/H/NonDeC O_pri_rad)))  O/H/NonDeO     O_rad/NonDeO      
reaction(  "H2O2(101) + SPC(205) <=> HO2J(9) + SPC(208)",  [3.46000E+01, 3.4, -1.14])

#  Reaction 25
# Disproportionation estimate: (Average of: (O_sec_rad O_Orad))  O_rad/NonDeO     O_Orad      
reaction(  "SPC(205) + HO2J(9) <=> SPC(208) + O2(1)",  [1.75000E+10, 0, -3.275])

#  Reaction 26
# Disproportionation estimate: (Average of: (Average of: (O_pri_rad C/H2/Nd_Csrad)))  O_rad/NonDeO     C/H2/Nd_Csrad      
reaction(  "SPC(205) + SPC(42) <=> SPC(208) + SPC(118)",  [4.82000E+13, 0, 0])

#  Reaction 27
# H_Abstraction estimate: (Average of: (Average of: (O/H/NonDeC C_methyl && Average of: (O/H/NonDeC C_rad/H2/Cs) && Average of: (O/H/NonDeC C_rad/H/NonDeC) && Average of: (Average of: (O/H/NonDeC C_rad/Cs3)) && O/H/OneDe C_methyl)))  C_rad/H/OneDeC     O/H/NonDeO      
reaction(  "SPC(180) + H2O2(101) <=> SPC(118) + HO2J(9)",  [2.97344E+03, 2.386, 9.69])

#  Reaction 28
# H_Abstraction estimate: (Average of: (Average of: (C/H2/NonDeC C_methyl && Average of: (C/H2/NonDeC C_rad/H2/Cs && C/H2/NonDeC C_rad/H2/O) && Average of: (C/H2/NonDeC C_rad/H/NonDeC) && Average of: (Average of: (C/H2/NonDeC C_rad/Cs3)) && Average of: (C/H2/OneDeC C_methyl) && C/H2/TwoDe C_methyl)))  C/H2/OneDeC     C_rad/H/OneDeC      
reaction(  "SPC(118) + SPC(42) <=> SPC(180) + C10bnzn(6)",  [3.03979E+06, 1.88583, 9.44833])

#  Reaction 29
# H_Abstraction estimate: (Average of: (Average of: (C/H2/NonDeC O_pri_rad && Average of: (C/H2/NonDeC O_rad/NonDeC && C/H2/NonDeC O_rad/NonDeO))))  C/H2/OneDeC     O_rad/NonDeO      
reaction(  "SPC(118) + SPC(116) <=> SPC(180) + SPC(119)",  [3.17293E+09, 0.95, 5.644])

#  Reaction 30
# Disproportionation estimate: (Average of: (Disproportionation exact: ))  O_Orad     C_rad/H/OneDeC      
reaction(  "HO2J(9) + SPC(180) <=> O2(1) + SPC(118)",  [3.00000E+11, 0, 0])

#  Reaction 31
# Disproportionation estimate: (Average of: (Average of: (C_rad/H/NonDeC C/H2/Nd_Csrad)))  C/H2/Nd_Csrad     C_rad/H/OneDeC      
reaction(  "SPC(42) + SPC(180) <=> SPC(118) + SPC(118)",  [1.02600E+14, -0.35, 0])

#  Reaction 32
# H_Abstraction estimate: (Average of: (Average of: (C/H2/NonDeC C_methyl && Average of: (C/H2/NonDeC C_rad/H2/Cs && C/H2/NonDeC C_rad/H2/O) && Average of: (C/H2/NonDeC C_rad/H/NonDeC) && Average of: (Average of: (C/H2/NonDeC C_rad/Cs3)) && Average of: (C/H2/OneDeC C_methyl) && C/H2/TwoDe C_methyl)))  C/H2/OneDeC     C_rad/H2/Cb      
reaction(  "SPC(118) + C11H9J(30) <=> SPC(180) + Mnphtln(4)",  [3.03979E+06, 1.88583, 9.44833])

#  Reaction 33
# H_Abstraction estimate: (Average of: (Average of: (C/H2/NonDeC O_pri_rad && Average of: (C/H2/NonDeC O_rad/NonDeC && C/H2/NonDeC O_rad/NonDeO))))  C/H2/OneDeC     O_rad/NonDeO      
reaction(  "SPC(118) + SPC(205) <=> SPC(180) + SPC(208)",  [3.17293E+09, 0.95, 5.644])

#  Reaction 34
# R_Addition_MultipleBond estimate: (Average of: (O2d C_sec_rad))  O2d     C_rad/H/OneDeC      
reaction(  "O2(1) + SPC(180) <=> SPC(248)",  [7.54000E+12, 0, 0])

#  Reaction 35
# R_Recombination estimate: (Average of: (Average of: (H_rad H_rad && Average of: (C_methyl C_methyl && Average of: (C_rad/H2/Cs C_rad/H2/Cs) && Average of: (C_rad/H/NonDeC C_rad/H/NonDeC) && Average of: (Average of: (C_rad/Cs3 C_rad/Cs3))) && Average of: (Cd_pri_rad Cd_pri_rad) && Cb_rad Cb_rad && Average of: (CO_pri_rad CO_pri_rad && Average of: (CO_rad/NonDe CO_rad/NonDe)) && Average of: (O_pri_rad O_pri_rad && Average of: (O_rad/NonDe O_rad/NonDe)))))  C_rad/H/OneDeC     O_rad/NonDe      
reaction(  "SPC(180) + HO2J(9) <=> SPC(262)",  [1.64248E+13, -0.15, 0.31])

#  Reaction 36
# H_Abstraction estimate: (Average of: (Average of: (O/H/NonDeC C_methyl && Average of: (O/H/NonDeC C_rad/H2/Cs) && Average of: (O/H/NonDeC C_rad/H/NonDeC) && Average of: (Average of: (O/H/NonDeC C_rad/Cs3)) && O/H/OneDe C_methyl)))  C_rad/H2/Cb     O/H/NonDeO      
reaction(  "C11H9J(30) + SPC(262) <=> Mnphtln(4) + SPC(248)",  [1.48672E+03, 2.386, 9.69])

#  Reaction 37
# H_Abstraction estimate: (Average of: (Average of: (C/H2/NonDeC O_pri_rad && Average of: (C/H2/NonDeC O_rad/NonDeC && C/H2/NonDeC O_rad/NonDeO))))  C/H2/OneDeC     O_rad/NonDeO      
reaction(  "C10bnzn(6) + SPC(248) <=> SPC(42) + SPC(262)",  [3.17293E+09, 0.95, 5.644])

#  Reaction 38
# H_Abstraction estimate: (Average of: (Average of: (O/H/NonDeC O_pri_rad)))  O/H/NonDeO     O_rad/NonDeO      
reaction(  "SPC(119) + SPC(248) <=> SPC(116) + SPC(262)",  [1.73000E+01, 3.4, -1.14])

#  Reaction 39
# H_Abstraction estimate: (Average of: (Average of: (C/H2/NonDeC O_pri_rad && Average of: (C/H2/NonDeC O_rad/NonDeC && C/H2/NonDeC O_rad/NonDeO))))  C/H2/OneDeC     O_rad/NonDeO      
reaction(  "SPC(118) + SPC(248) <=> SPC(180) + SPC(262)",  [3.17293E+09, 0.95, 5.644])

#  Reaction 40
# H_Abstraction estimate: (Average of: (Average of: (O/H/NonDeC O_pri_rad)))  O/H/NonDeO     O_rad/NonDeO      
reaction(  "H2O2(101) + SPC(248) <=> HO2J(9) + SPC(262)",  [3.46000E+01, 3.4, -1.14])

#  Reaction 41
# H_Abstraction estimate: (Average of: (Average of: (O/H/NonDeC O_pri_rad)))  O/H/NonDeO     O_rad/NonDeO      
reaction(  "SPC(208) + SPC(248) <=> SPC(205) + SPC(262)",  [1.73000E+01, 3.4, -1.14])

#  Reaction 42
# Disproportionation estimate: (Average of: (O_sec_rad O_Orad))  O_rad/NonDeO     O_Orad      
reaction(  "SPC(248) + HO2J(9) <=> SPC(262) + O2(1)",  [1.75000E+10, 0, -3.275])

#  Reaction 43
# Disproportionation estimate: (Average of: (Average of: (O_pri_rad C/H2/Nd_Csrad)))  O_rad/NonDeO     C/H2/Nd_Csrad      
reaction(  "SPC(248) + SPC(42) <=> SPC(262) + SPC(118)",  [4.82000E+13, 0, 0])

#  Reaction 44
# R_Addition_MultipleBond estimate: (Average of: (O2d C_sec_rad))  O2d     C_rad/H/TwoDe      
reaction(  "O2(1) + SPC(180) <=> SPC(255)",  [7.54000E+12, 0, 0])

#  Reaction 45
# R_Recombination estimate: (Average of: (Average of: (H_rad H_rad && Average of: (C_methyl C_methyl && Average of: (C_rad/H2/Cs C_rad/H2/Cs) && Average of: (C_rad/H/NonDeC C_rad/H/NonDeC) && Average of: (Average of: (C_rad/Cs3 C_rad/Cs3))) && Average of: (Cd_pri_rad Cd_pri_rad) && Cb_rad Cb_rad && Average of: (CO_pri_rad CO_pri_rad && Average of: (CO_rad/NonDe CO_rad/NonDe)) && Average of: (O_pri_rad O_pri_rad && Average of: (O_rad/NonDe O_rad/NonDe)))))  C_rad/H/TwoDe     O_rad/NonDe      
reaction(  "SPC(180) + HO2J(9) <=> SPC(265)",  [1.64248E+13, -0.15, 0.31])

#  Reaction 46
# H_Abstraction estimate: (Average of: (Average of: (O/H/NonDeC C_methyl && Average of: (O/H/NonDeC C_rad/H2/Cs) && Average of: (O/H/NonDeC C_rad/H/NonDeC) && Average of: (Average of: (O/H/NonDeC C_rad/Cs3)) && O/H/OneDe C_methyl)))  C_rad/H2/Cb     O/H/NonDeO      
reaction(  "C11H9J(30) + SPC(265) <=> Mnphtln(4) + SPC(255)",  [1.48672E+03, 2.386, 9.69])

#  Reaction 47
# H_Abstraction estimate: (Average of: (Average of: (C/H2/NonDeC O_pri_rad && Average of: (C/H2/NonDeC O_rad/NonDeC && C/H2/NonDeC O_rad/NonDeO))))  C/H2/OneDeC     O_rad/NonDeO      
reaction(  "C10bnzn(6) + SPC(255) <=> SPC(42) + SPC(265)",  [3.17293E+09, 0.95, 5.644])

#  Reaction 48
# H_Abstraction estimate: (Average of: (Average of: (O/H/NonDeC O_pri_rad)))  O/H/NonDeO     O_rad/NonDeO      
reaction(  "SPC(119) + SPC(255) <=> SPC(116) + SPC(265)",  [1.73000E+01, 3.4, -1.14])

#  Reaction 49
# H_Abstraction estimate: (Average of: (Average of: (C/H2/NonDeC O_pri_rad && Average of: (C/H2/NonDeC O_rad/NonDeC && C/H2/NonDeC O_rad/NonDeO))))  C/H2/OneDeC     O_rad/NonDeO      
reaction(  "SPC(118) + SPC(255) <=> SPC(180) + SPC(265)",  [3.17293E+09, 0.95, 5.644])

#  Reaction 50
# H_Abstraction estimate: (Average of: (Average of: (O/H/NonDeC O_pri_rad)))  O/H/NonDeO     O_rad/NonDeO      
reaction(  "H2O2(101) + SPC(255) <=> HO2J(9) + SPC(265)",  [3.46000E+01, 3.4, -1.14])

#  Reaction 51
# H_Abstraction estimate: (Average of: (Average of: (O/H/NonDeC O_pri_rad)))  O/H/NonDeO     O_rad/NonDeO      
reaction(  "SPC(208) + SPC(255) <=> SPC(205) + SPC(265)",  [1.73000E+01, 3.4, -1.14])

#  Reaction 52
# H_Abstraction estimate: (Average of: (Average of: (O/H/NonDeC O_pri_rad)))  O/H/NonDeO     O_rad/NonDeO      
reaction(  "SPC(262) + SPC(255) <=> SPC(248) + SPC(265)",  [1.73000E+01, 3.4, -1.14])

#  Reaction 53
# Disproportionation estimate: (Average of: (O_sec_rad O_Orad))  O_rad/NonDeO     O_Orad      
reaction(  "SPC(255) + HO2J(9) <=> SPC(265) + O2(1)",  [1.75000E+10, 0, -3.275])

#  Reaction 54
# Disproportionation estimate: (Average of: (Average of: (O_pri_rad C/H2/Nd_Csrad)))  O_rad/NonDeO     C/H2/Nd_Csrad      
reaction(  "SPC(255) + SPC(42) <=> SPC(265) + SPC(118)",  [4.82000E+13, 0, 0])
