#
# Generated from file chem.inp
# by ck2cti on Fri Jun  4 14:47:22 2010
#
units(length = "cm", time = "s", quantity = "mol", act_energy = "cal/mol")


ideal_gas(name = "chem",
      elements = " H  C  O  N  Ne  Ar  He  Si  S ",
      species = """ Ar  N2  O2(1)  n-C11(2)  n-C13(3)  Mnphtln(4)  n-C16(5)  C10bnzn(6)  n-C19(7)  n-C21(8) 
                   HO2J(9)  SPC(42)  SPC(117)  SPC(120)  H2O2(101)  SPC(119)  C11H9J(30)  SPC(206)  SPC(209)  O2JJ(102) 
                   SPC(158)  SPC(250)  SPC(255)  SPC(32)  SPC(335)  SPC(339)  SPC(152)  SPC(431)  SPC(435)  SPC(36) 
                   SPC(513)  SPC(518)  SPC(37)  SPC(608)  SPC(611)  SPC(33)  SPC(689)  SPC(693)  SPC(38)  SPC(779) 
                   SPC(782)  SPC(35)  SPC(861)  SPC(865)  SPC(34)  SPC(947)  SPC(950)  SPC(133)  SPC(235)  HOJ(103) 
                   H2O(1149)  SPC(159)  C9H19J(77)  SPC(1177)  SPC(1199)  SPC(1203)  SPC(17)  SPC(1347)  SPC(1353)  SPC(53) 
                   SPC(1430)  SPC(1435)  SPC(1255)  SPC(21)  SPC(1545)  SPC(1552)  SPC(1152)  SPC(19)  SPC(1635)  SPC(1642) 
                   SPC(57)  SPC(1722)  SPC(1727)  SPC(20)  SPC(1790)  SPC(1795)  SPC(179)  SPC(180) """,
      reactions = "all",
      initial_state = state(temperature = 300.0,
                        pressure = OneAtm)    )



#-------------------------------------------------------------------------------
#  Species data 
#-------------------------------------------------------------------------------

species(name = "Ar",
    atoms = " Ar:1 ",
    thermo = (
       NASA( [  200.00,  1000.00], [  2.500000000E+00,   0.000000000E+00, 
                0.000000000E+00,   0.000000000E+00,   0.000000000E+00,
               -7.453750000E+02,   4.379674900E+00] ),
       NASA( [ 1000.00,  6000.00], [  2.500000000E+00,   0.000000000E+00, 
                0.000000000E+00,   0.000000000E+00,   0.000000000E+00,
               -7.453750000E+02,   4.379674900E+00] )
             ),
    note = "L 6/88"
       )

species(name = "N2",
    atoms = " N:2 ",
    thermo = (
       NASA( [  200.00,  1000.00], [  3.531005280E+00,  -1.236609880E-04, 
               -5.029994330E-07,   2.435306120E-09,  -1.408812350E-12,
               -1.046976280E+03,   2.967470380E+00] ),
       NASA( [ 1000.00,  6000.00], [  2.952576370E+00,   1.396900400E-03, 
               -4.926316030E-07,   7.860101950E-11,  -4.607552040E-15,
               -9.239486880E+02,   5.871887620E+00] )
             ),
    note = "G 8/02"
       )

species(name = "O2(1)",
    atoms = " O:2 ",
    thermo = (
       NASA( [  300.00,   995.00], [  3.545084030E+00,  -1.390033420E-03, 
                6.244308680E-06,  -6.251864280E-09,   2.041197770E-12,
               -4.494153520E+03,  -5.704726150E+00] ),
       NASA( [  995.00,  5000.00], [  3.315085470E+00,   1.320064650E-03, 
               -5.327143950E-07,   9.201493710E-11,  -5.758113180E-15,
               -4.536774930E+03,  -5.040426370E+00] )
             )
       )

species(name = "n-C11(2)",
    atoms = " C:11  H:24 ",
    thermo = (
       NASA( [  300.00,   995.00], [  2.806602240E+00,   8.834044130E-02, 
                4.402788810E-05,  -1.106075210E-07,   4.595582030E-11,
               -5.178891950E+04,  -1.544619700E+01] ),
       NASA( [  995.00,  5000.00], [  2.600614840E+01,   6.388924380E-02, 
               -2.284074830E-05,   3.690271540E-09,  -2.216932930E-13,
               -5.981226690E+04,  -1.443723550E+02] )
             )
       )

species(name = "n-C13(3)",
    atoms = " C:13  H:28 ",
    thermo = (
       NASA( [  300.00,   995.00], [  2.581511030E+00,   1.089987390E-01, 
                4.095156050E-05,  -1.209089110E-07,   5.126246480E-11,
               -5.911419370E+04,  -1.486353300E+01] ),
       NASA( [  995.00,  5000.00], [  3.070534950E+01,   7.496866510E-02, 
               -2.687816100E-05,   4.351268800E-09,  -2.617681800E-13,
               -6.862328670E+04,  -1.700635270E+02] )
             )
       )

species(name = "Mnphtln(4)",
    atoms = " C:11  H:10 ",
    thermo = (
       NASA( [  300.00,   995.00], [  2.917658030E+00,   3.265254020E-02, 
                1.020906050E-04,  -1.480989180E-07,   5.597307040E-11,
               -1.926714350E+03,  -2.201838620E+01] ),
       NASA( [  995.00,  5000.00], [  1.995430520E+01,   3.655355240E-02, 
               -1.291165840E-05,   2.061363910E-09,  -1.226167260E-13,
               -8.900713040E+03,  -1.221327620E+02] )
             )
       )

species(name = "n-C16(5)",
    atoms = " C:16  H:34 ",
    thermo = (
       NASA( [  300.00,   995.00], [  2.243874210E+00,   1.399861840E-01, 
                3.633706920E-05,  -1.363609950E-07,   5.922243160E-11,
               -6.998312590E+04,  -1.359027800E+01] ),
       NASA( [  995.00,  5000.00], [  3.775415110E+01,   9.158779720E-02, 
               -3.293428010E-05,   5.342764690E-09,  -3.218805120E-13,
               -8.172083700E+04,  -2.082010270E+02] )
             )
       )

species(name = "C10bnzn(6)",
    atoms = " C:16  H:26 ",
    thermo = (
       NASA( [  300.00,   995.00], [  2.207951290E+00,   1.037810960E-01, 
                8.650487520E-05,  -1.773833100E-07,   7.201115540E-11,
               -3.956694210E+04,  -1.563249630E+01] ),
       NASA( [  995.00,  5000.00], [  3.576468400E+01,   7.380902610E-02, 
               -2.648247720E-05,   4.288468070E-09,  -2.579467940E-13,
               -5.143931340E+04,  -2.034584320E+02] )
             )
       )

species(name = "n-C19(7)",
    atoms = " C:19  H:40 ",
    thermo = (
       NASA( [  300.00,   995.00], [  1.906237400E+00,   1.709736300E-01, 
                3.172257780E-05,  -1.518130800E-07,   6.718239840E-11,
               -8.073986630E+04,  -1.194054070E+01] ),
       NASA( [  995.00,  5000.00], [  4.480295270E+01,   1.082069290E-01, 
               -3.899039920E-05,   6.334260580E-09,  -3.819928440E-13,
               -9.470619570E+04,  -2.459620450E+02] )
             )
       )

species(name = "n-C21(8)",
    atoms = " C:21  H:44 ",
    thermo = (
       NASA( [  300.00,   995.00], [  1.681146190E+00,   1.916319270E-01, 
                2.864625020E-05,  -1.621144690E-07,   7.248904300E-11,
               -8.786046850E+04,  -1.067105800E+01] ),
       NASA( [  995.00,  5000.00], [  4.950215380E+01,   1.192863510E-01, 
               -4.302781190E-05,   6.995257830E-09,  -4.220677320E-13,
               -1.033125430E+05,  -2.709663990E+02] )
             )
       )

species(name = "HO2J(9)",
    atoms = " H:1  O:2 ",
    thermo = (
       NASA( [  300.00,   995.00], [  3.983589810E+00,  -2.361605180E-03, 
                1.340933100E-05,  -1.410367590E-08,   4.750618410E-12,
               -5.782858450E+03,  -1.407523850E+01] ),
       NASA( [  995.00,  5000.00], [  3.961584930E+00,   2.391925430E-03, 
               -7.889578690E-07,   1.206769120E-10,  -6.971812570E-15,
               -6.009426070E+03,  -1.512967380E+01] )
             )
       )

species(name = "SPC(42)",
    atoms = " C:16  H:25 ",
    thermo = (
       NASA( [  300.00,   995.00], [  2.046089000E+00,   1.124967340E-01, 
                5.464524070E-05,  -1.439955890E-07,   6.065630260E-11,
               -2.267635030E+04,  -1.870154670E+01] ),
       NASA( [  995.00,  5000.00], [  3.522765670E+01,   7.245788190E-02, 
               -2.571783470E-05,   4.127780590E-09,  -2.467191650E-13,
               -3.390103840E+04,  -2.018400080E+02] )
             )
       )

species(name = "SPC(117)",
    atoms = " C:16  H:25  O:2 ",
    thermo = (
       NASA( [  300.00,   995.00], [  1.913691360E+00,   1.215525330E-01, 
                5.521245140E-05,  -1.536054440E-07,   6.534679770E-11,
               -3.431914210E+04,  -1.219088090E+01] ),
       NASA( [  995.00,  5000.00], [  3.932817010E+01,   7.338113090E-02, 
               -2.628258040E-05,   4.248503160E-09,  -2.552073990E-13,
               -4.682599520E+04,  -2.179395080E+02] )
             )
       )

species(name = "SPC(120)",
    atoms = " C:16  H:26  O:2 ",
    thermo = (
       NASA( [  300.00,   995.00], [  1.863742160E+00,   1.233036330E-01, 
                6.473597270E-05,  -1.678279440E-07,   7.085029490E-11,
               -5.260697690E+04,  -1.284760210E+01] ),
       NASA( [  995.00,  5000.00], [  4.137300030E+01,   7.424534690E-02, 
               -2.677937040E-05,   4.348722250E-09,  -2.620135370E-13,
               -6.590368230E+04,  -2.305660760E+02] )
             )
       )

species(name = "H2O2(101)",
    atoms = " H:2  O:2 ",
    thermo = (
       NASA( [  300.00,   995.00], [  3.914857700E+00,   1.138835750E-03, 
                1.114304150E-05,  -1.366851510E-08,   4.866202130E-12,
               -2.382355980E+04,  -1.404186270E+01] ),
       NASA( [  995.00,  5000.00], [  4.606380380E+00,   3.858693510E-03, 
               -1.247762520E-06,   1.878381040E-10,  -1.072816180E-14,
               -2.423344560E+04,  -1.874273980E+01] )
             )
       )

species(name = "SPC(119)",
    atoms = " C:16  H:24 ",
    thermo = (
       NASA( [  300.00,   995.00], [  2.121635230E+00,   1.021814350E-01, 
                7.720524680E-05,  -1.658985380E-07,   6.797541920E-11,
               -2.575250250E+04,  -1.375753110E+01] ),
       NASA( [  995.00,  5000.00], [  3.537528160E+01,   6.912787010E-02, 
               -2.465488100E-05,   3.975303080E-09,  -2.383880720E-13,
               -3.735168920E+04,  -1.990531150E+02] )
             )
       )

species(name = "C11H9J(30)",
    atoms = " C:11  H:9 ",
    thermo = (
       NASA( [  300.00,   995.00], [  2.409682560E+00,   3.922092200E-02, 
                8.288294810E-05,  -1.303034770E-07,   5.041675440E-11,
                1.638717940E+04,  -2.235487190E+01] ),
       NASA( [  995.00,  5000.00], [  2.094474030E+01,   3.310353260E-02, 
               -1.099464310E-05,   1.668725510E-09,  -9.553406680E-14,
                9.312753740E+03,  -1.286969920E+02] )
             )
       )

species(name = "SPC(206)",
    atoms = " C:11  H:9  O:2 ",
    thermo = (
       NASA( [  300.00,   995.00], [  2.822061710E+00,   5.330975060E-02, 
                5.767095120E-05,  -1.091103080E-07,   4.382133060E-11,
                5.337680220E+03,  -1.950744420E+01] ),
       NASA( [  995.00,  5000.00], [  2.246321340E+01,   3.739226060E-02, 
               -1.336272240E-05,   2.149586130E-09,  -1.285597770E-13,
               -1.691830840E+03,  -1.298485460E+02] )
             )
       )

species(name = "SPC(209)",
    atoms = " C:11  H:10  O:2 ",
    thermo = (
       NASA( [  300.00,   995.00], [  2.772112520E+00,   5.506085120E-02, 
                6.719447260E-05,  -1.233328080E-07,   4.932482780E-11,
               -1.295015450E+04,  -2.016416540E+01] ),
       NASA( [  995.00,  5000.00], [  2.450804360E+01,   3.825647650E-02, 
               -1.385951230E-05,   2.249805210E-09,  -1.353659150E-13,
               -2.076951790E+04,  -1.424751140E+02] )
             )
       )

species(name = "O2JJ(102)",
    atoms = " O:2 ",
    thermo = (
       NASA( [  300.00,   995.00], [  3.564987210E+00,  -1.299890850E-03, 
                5.561546070E-06,  -5.446708780E-09,   1.750088520E-12,
               -1.300645810E+04,  -3.477140470E+01] ),
       NASA( [  995.00,  5000.00], [  3.266375470E+00,   1.330849200E-03, 
               -5.604256670E-07,   9.956813890E-11,  -6.345160570E-15,
               -1.301784160E+04,  -3.368807260E+01] )
             )
       )

species(name = "SPC(158)",
    atoms = " C:16  H:25  O:2 ",
    thermo = (
       NASA( [  300.00,   995.00], [  2.261937230E+00,   1.234755890E-01, 
                4.505252110E-05,  -1.410387690E-07,   6.063259490E-11,
               -2.928328000E+04,  -1.204346430E+01] ),
       NASA( [  995.00,  5000.00], [  3.798148480E+01,   7.578786250E-02, 
               -2.762959890E-05,   4.517581590E-09,  -2.734694150E-13,
               -4.113946610E+04,  -2.080488390E+02] )
             )
       )

species(name = "SPC(250)",
    atoms = " C:16  H:25  O:4 ",
    thermo = (
       NASA( [  300.00,   995.00], [  1.459547490E+00,   1.447917380E-01, 
                2.262040110E-05,  -1.333546920E-07,   6.065876100E-11,
               -4.815396620E+04,  -1.005423060E+01] ),
       NASA( [  995.00,  5000.00], [  4.505072620E+01,   7.337781310E-02, 
               -2.623006610E-05,   4.231009910E-09,  -2.537407680E-13,
               -6.196861870E+04,  -2.459660420E+02] )
             )
       )

species(name = "SPC(255)",
    atoms = " C:16  H:26  O:4 ",
    thermo = (
       NASA( [  300.00,   995.00], [  1.409598290E+00,   1.465428380E-01, 
                3.214392240E-05,  -1.475771920E-07,   6.616225830E-11,
               -6.644180090E+04,  -1.071095170E+01] ),
       NASA( [  995.00,  5000.00], [  4.709555640E+01,   7.424202900E-02, 
               -2.672685610E-05,   4.331228990E-09,  -2.605469060E-13,
               -8.104630580E+04,  -2.585926100E+02] )
             )
       )

species(name = "SPC(32)",
    atoms = " C:16  H:33 ",
    thermo = (
       NASA( [  300.00,   995.00], [  2.515680350E+00,   1.402994010E-01, 
                1.875806560E-05,  -1.128226120E-07,   5.031693170E-11,
               -4.664081290E+04,  -1.136673490E+01] ),
       NASA( [  995.00,  5000.00], [  3.495698470E+01,   9.238584680E-02, 
               -3.337726340E-05,   5.429618100E-09,  -3.277298340E-13,
               -5.718102240E+04,  -1.882383520E+02] )
             )
       )

species(name = "SPC(335)",
    atoms = " C:16  H:33  O:2 ",
    thermo = (
       NASA( [  300.00,   995.00], [  1.839679540E+00,   1.614742890E-01, 
               -5.778502490E-06,  -1.018877430E-07,   4.903089770E-11,
               -6.553555630E+04,  -1.012208780E+01] ),
       NASA( [  995.00,  5000.00], [  4.143187690E+01,   9.072026340E-02, 
               -3.238497580E-05,   5.225052350E-09,  -3.136077430E-13,
               -7.779121450E+04,  -2.229261750E+02] )
             )
       )

species(name = "SPC(339)",
    atoms = " C:16  H:34  O:2 ",
    thermo = (
       NASA( [  300.00,   995.00], [  1.789730350E+00,   1.632253890E-01, 
                3.745018870E-06,  -1.161102430E-07,   5.453439500E-11,
               -8.382339110E+04,  -1.077880900E+01] ),
       NASA( [  995.00,  5000.00], [  4.347670710E+01,   9.158447930E-02, 
               -3.288176580E-05,   5.325271430E-09,  -3.204138820E-13,
               -9.686890160E+04,  -2.355527430E+02] )
             )
       )

species(name = "SPC(152)",
    atoms = " C:16  H:25  O:2 ",
    thermo = (
       NASA( [  300.00,   995.00], [  2.261937230E+00,   1.234755890E-01, 
                4.505252110E-05,  -1.410387690E-07,   6.063259490E-11,
               -2.928328000E+04,  -1.204346430E+01] ),
       NASA( [  995.00,  5000.00], [  3.798148480E+01,   7.578786250E-02, 
               -2.762959890E-05,   4.517581590E-09,  -2.734694150E-13,
               -4.113946610E+04,  -2.080488390E+02] )
             )
       )

species(name = "SPC(431)",
    atoms = " C:16  H:25  O:4 ",
    thermo = (
       NASA( [  300.00,   995.00], [  1.459547490E+00,   1.447917380E-01, 
                2.262040110E-05,  -1.333546920E-07,   6.065876100E-11,
               -4.815396620E+04,  -1.005423060E+01] ),
       NASA( [  995.00,  5000.00], [  4.505072620E+01,   7.337781310E-02, 
               -2.623006610E-05,   4.231009910E-09,  -2.537407680E-13,
               -6.196861870E+04,  -2.459660420E+02] )
             )
       )

species(name = "SPC(435)",
    atoms = " C:16  H:26  O:4 ",
    thermo = (
       NASA( [  300.00,   995.00], [  1.409598290E+00,   1.465428380E-01, 
                3.214392240E-05,  -1.475771920E-07,   6.616225830E-11,
               -6.644180090E+04,  -1.071095170E+01] ),
       NASA( [  995.00,  5000.00], [  4.709555640E+01,   7.424202900E-02, 
               -2.672685610E-05,   4.331228990E-09,  -2.605469060E-13,
               -8.104630580E+04,  -2.585926100E+02] )
             )
       )

species(name = "SPC(36)",
    atoms = " C:16  H:33 ",
    thermo = (
       NASA( [  300.00,   995.00], [  2.642069280E+00,   1.401581400E-01, 
                1.665361760E-05,  -1.095718210E-07,   4.900473150E-11,
               -4.665942900E+04,  -1.209306280E+01] ),
       NASA( [  995.00,  5000.00], [  3.436263560E+01,   9.313031280E-02, 
               -3.378450850E-05,   5.511624030E-09,  -3.333363900E-13,
               -5.695662080E+04,  -1.849907130E+02] )
             )
       )

species(name = "SPC(513)",
    atoms = " C:16  H:33  O:2 ",
    thermo = (
       NASA( [  300.00,   995.00], [  1.839679540E+00,   1.614742890E-01, 
               -5.778502490E-06,  -1.018877430E-07,   4.903089770E-11,
               -6.553555630E+04,  -1.012208780E+01] ),
       NASA( [  995.00,  5000.00], [  4.143187690E+01,   9.072026340E-02, 
               -3.238497580E-05,   5.225052350E-09,  -3.136077430E-13,
               -7.779121450E+04,  -2.229261750E+02] )
             )
       )

species(name = "SPC(518)",
    atoms = " C:16  H:34  O:2 ",
    thermo = (
       NASA( [  300.00,   995.00], [  1.789730350E+00,   1.632253890E-01, 
                3.745018870E-06,  -1.161102430E-07,   5.453439500E-11,
               -8.382339110E+04,  -1.077880900E+01] ),
       NASA( [  995.00,  5000.00], [  4.347670710E+01,   9.158447930E-02, 
               -3.288176580E-05,   5.325271430E-09,  -3.204138820E-13,
               -9.686890160E+04,  -2.355527430E+02] )
             )
       )

species(name = "SPC(37)",
    atoms = " C:16  H:33 ",
    thermo = (
       NASA( [  300.00,   995.00], [  2.642069280E+00,   1.401581400E-01, 
                1.665361760E-05,  -1.095718210E-07,   4.900473150E-11,
               -4.665942900E+04,  -1.209306280E+01] ),
       NASA( [  995.00,  5000.00], [  3.436263560E+01,   9.313031280E-02, 
               -3.378450850E-05,   5.511624030E-09,  -3.333363900E-13,
               -5.695662080E+04,  -1.849907130E+02] )
             )
       )

species(name = "SPC(608)",
    atoms = " C:16  H:33  O:2 ",
    thermo = (
       NASA( [  300.00,   995.00], [  1.839679540E+00,   1.614742890E-01, 
               -5.778502490E-06,  -1.018877430E-07,   4.903089770E-11,
               -6.553555630E+04,  -1.012208780E+01] ),
       NASA( [  995.00,  5000.00], [  4.143187690E+01,   9.072026340E-02, 
               -3.238497580E-05,   5.225052350E-09,  -3.136077430E-13,
               -7.779121450E+04,  -2.229261750E+02] )
             )
       )

species(name = "SPC(611)",
    atoms = " C:16  H:34  O:2 ",
    thermo = (
       NASA( [  300.00,   995.00], [  1.789730350E+00,   1.632253890E-01, 
                3.745018870E-06,  -1.161102430E-07,   5.453439500E-11,
               -8.382339110E+04,  -1.077880900E+01] ),
       NASA( [  995.00,  5000.00], [  4.347670710E+01,   9.158447930E-02, 
               -3.288176580E-05,   5.325271430E-09,  -3.204138820E-13,
               -9.686890160E+04,  -2.355527430E+02] )
             )
       )

species(name = "SPC(33)",
    atoms = " C:16  H:33 ",
    thermo = (
       NASA( [  300.00,   995.00], [  2.642069280E+00,   1.401581400E-01, 
                1.665361760E-05,  -1.095718210E-07,   4.900473150E-11,
               -4.665942900E+04,  -1.209306280E+01] ),
       NASA( [  995.00,  5000.00], [  3.436263560E+01,   9.313031280E-02, 
               -3.378450850E-05,   5.511624030E-09,  -3.333363900E-13,
               -5.695662080E+04,  -1.849907130E+02] )
             )
       )

species(name = "SPC(689)",
    atoms = " C:16  H:33  O:2 ",
    thermo = (
       NASA( [  300.00,   995.00], [  1.839679540E+00,   1.614742890E-01, 
               -5.778502490E-06,  -1.018877430E-07,   4.903089770E-11,
               -6.553555630E+04,  -1.012208780E+01] ),
       NASA( [  995.00,  5000.00], [  4.143187690E+01,   9.072026340E-02, 
               -3.238497580E-05,   5.225052350E-09,  -3.136077430E-13,
               -7.779121450E+04,  -2.229261750E+02] )
             )
       )

species(name = "SPC(693)",
    atoms = " C:16  H:34  O:2 ",
    thermo = (
       NASA( [  300.00,   995.00], [  1.789730350E+00,   1.632253890E-01, 
                3.745018870E-06,  -1.161102430E-07,   5.453439500E-11,
               -8.382339110E+04,  -1.077880900E+01] ),
       NASA( [  995.00,  5000.00], [  4.347670710E+01,   9.158447930E-02, 
               -3.288176580E-05,   5.325271430E-09,  -3.204138820E-13,
               -9.686890160E+04,  -2.355527430E+02] )
             )
       )

species(name = "SPC(38)",
    atoms = " C:16  H:33 ",
    thermo = (
       NASA( [  300.00,   995.00], [  2.642069280E+00,   1.401581400E-01, 
                1.665361760E-05,  -1.095718210E-07,   4.900473150E-11,
               -4.665942900E+04,  -1.209306280E+01] ),
       NASA( [  995.00,  5000.00], [  3.436263560E+01,   9.313031280E-02, 
               -3.378450850E-05,   5.511624030E-09,  -3.333363900E-13,
               -5.695662080E+04,  -1.849907130E+02] )
             )
       )

species(name = "SPC(779)",
    atoms = " C:16  H:33  O:2 ",
    thermo = (
       NASA( [  300.00,   995.00], [  1.839679540E+00,   1.614742890E-01, 
               -5.778502490E-06,  -1.018877430E-07,   4.903089770E-11,
               -6.553555630E+04,  -1.012208780E+01] ),
       NASA( [  995.00,  5000.00], [  4.143187690E+01,   9.072026340E-02, 
               -3.238497580E-05,   5.225052350E-09,  -3.136077430E-13,
               -7.779121450E+04,  -2.229261750E+02] )
             )
       )

species(name = "SPC(782)",
    atoms = " C:16  H:34  O:2 ",
    thermo = (
       NASA( [  300.00,   995.00], [  1.789730350E+00,   1.632253890E-01, 
                3.745018870E-06,  -1.161102430E-07,   5.453439500E-11,
               -8.382339110E+04,  -1.077880900E+01] ),
       NASA( [  995.00,  5000.00], [  4.347670710E+01,   9.158447930E-02, 
               -3.288176580E-05,   5.325271430E-09,  -3.204138820E-13,
               -9.686890160E+04,  -2.355527430E+02] )
             )
       )

species(name = "SPC(35)",
    atoms = " C:16  H:33 ",
    thermo = (
       NASA( [  300.00,   995.00], [  2.642069280E+00,   1.401581400E-01, 
                1.665361760E-05,  -1.095718210E-07,   4.900473150E-11,
               -4.665942900E+04,  -1.209306280E+01] ),
       NASA( [  995.00,  5000.00], [  3.436263560E+01,   9.313031280E-02, 
               -3.378450850E-05,   5.511624030E-09,  -3.333363900E-13,
               -5.695662080E+04,  -1.849907130E+02] )
             )
       )

species(name = "SPC(861)",
    atoms = " C:16  H:33  O:2 ",
    thermo = (
       NASA( [  300.00,   995.00], [  1.839679540E+00,   1.614742890E-01, 
               -5.778502490E-06,  -1.018877430E-07,   4.903089770E-11,
               -6.553555630E+04,  -1.012208780E+01] ),
       NASA( [  995.00,  5000.00], [  4.143187690E+01,   9.072026340E-02, 
               -3.238497580E-05,   5.225052350E-09,  -3.136077430E-13,
               -7.779121450E+04,  -2.229261750E+02] )
             )
       )

species(name = "SPC(865)",
    atoms = " C:16  H:34  O:2 ",
    thermo = (
       NASA( [  300.00,   995.00], [  1.789730350E+00,   1.632253890E-01, 
                3.745018870E-06,  -1.161102430E-07,   5.453439500E-11,
               -8.382339110E+04,  -1.077880900E+01] ),
       NASA( [  995.00,  5000.00], [  4.347670710E+01,   9.158447930E-02, 
               -3.288176580E-05,   5.325271430E-09,  -3.204138820E-13,
               -9.686890160E+04,  -2.355527430E+02] )
             )
       )

species(name = "SPC(34)",
    atoms = " C:16  H:33 ",
    thermo = (
       NASA( [  300.00,   995.00], [  2.642069280E+00,   1.401581400E-01, 
                1.665361760E-05,  -1.095718210E-07,   4.900473150E-11,
               -4.665942900E+04,  -1.209306280E+01] ),
       NASA( [  995.00,  5000.00], [  3.436263560E+01,   9.313031280E-02, 
               -3.378450850E-05,   5.511624030E-09,  -3.333363900E-13,
               -5.695662080E+04,  -1.849907130E+02] )
             )
       )

species(name = "SPC(947)",
    atoms = " C:16  H:33  O:2 ",
    thermo = (
       NASA( [  300.00,   995.00], [  1.839679540E+00,   1.614742890E-01, 
               -5.778502490E-06,  -1.018877430E-07,   4.903089770E-11,
               -6.553555630E+04,  -1.012208780E+01] ),
       NASA( [  995.00,  5000.00], [  4.143187690E+01,   9.072026340E-02, 
               -3.238497580E-05,   5.225052350E-09,  -3.136077430E-13,
               -7.779121450E+04,  -2.229261750E+02] )
             )
       )

species(name = "SPC(950)",
    atoms = " C:16  H:34  O:2 ",
    thermo = (
       NASA( [  300.00,   995.00], [  1.789730350E+00,   1.632253890E-01, 
                3.745018870E-06,  -1.161102430E-07,   5.453439500E-11,
               -8.382339110E+04,  -1.077880900E+01] ),
       NASA( [  995.00,  5000.00], [  4.347670710E+01,   9.158447930E-02, 
               -3.288176580E-05,   5.325271430E-09,  -3.204138820E-13,
               -9.686890160E+04,  -2.355527430E+02] )
             )
       )

species(name = "SPC(133)",
    atoms = " C:16  H:24  O:2 ",
    thermo = (
       NASA( [  300.00,   995.00], [  2.005386700E+00,   1.233637550E-01, 
                4.073127850E-05,  -1.372705870E-07,   5.963637860E-11,
               -1.023442570E+04,  -1.033230250E+01] ),
       NASA( [  995.00,  5000.00], [  3.878439440E+01,   7.147819900E-02, 
               -2.571486740E-05,   4.169470380E-09,  -2.509957420E-13,
               -2.230447940E+04,  -2.114589000E+02] )
             )
       )

species(name = "SPC(235)",
    atoms = " C:16  H:24  O:2 ",
    thermo = (
       NASA( [  300.00,   995.00], [  1.641894330E+00,   1.339848380E-01, 
                1.252966900E-05,  -1.095223370E-07,   5.046476880E-11,
               -1.824431190E+04,  -1.597855190E+01] ),
       NASA( [  995.00,  5000.00], [  3.890538260E+01,   7.159034810E-02, 
               -2.516853040E-05,   4.010068250E-09,  -2.384463960E-13,
               -2.998694700E+04,  -2.173103510E+02] )
             )
       )

species(name = "HOJ(103)",
    atoms = " H:1  O:1 ",
    thermo = (
       NASA( [  300.00,   995.00], [  3.461400510E+00,   3.672658080E-04, 
               -1.603426240E-06,   2.357384480E-09,  -9.292318710E-13,
               -8.166396390E+02,  -1.140141820E+01] ),
       NASA( [  995.00,  5000.00], [  3.052136350E+00,   6.848238530E-04, 
               -8.073358070E-08,  -3.716994210E-12,   8.832238310E-16,
               -6.694663730E+02,  -9.098720900E+00] )
             )
       )

species(name = "H2O(1149)",
    atoms = " H:2  O:1 ",
    thermo = (
       NASA( [  300.00,   995.00], [  3.973975540E+00,  -5.676951970E-04, 
                2.576271040E-06,  -1.129268820E-09,   6.186832240E-14,
               -3.474967680E+04,  -1.294701490E+01] ),
       NASA( [  995.00,  5000.00], [  2.978305620E+00,   2.498703890E-03, 
               -6.350639430E-07,   7.681434410E-11,  -3.608910870E-15,
               -3.450518670E+04,  -7.915560760E+00] )
             )
       )

species(name = "SPC(159)",
    atoms = " C:16  H:25  O:1 ",
    thermo = (
       NASA( [  300.00,   995.00], [  2.075182420E+00,   1.084275050E-01, 
                8.335873610E-05,  -1.792665610E-07,   7.355555500E-11,
               -3.319554700E+04,  -1.188570200E+01] ),
       NASA( [  995.00,  5000.00], [  3.839390660E+01,   7.164486660E-02, 
               -2.583260020E-05,   4.197244950E-09,  -2.530137300E-13,
               -4.583007750E+04,  -2.140907140E+02] )
             )
       )

species(name = "C9H19J(77)",
    atoms = " C:9  H:19 ",
    thermo = (
       NASA( [  300.00,   995.00], [  3.066159590E+00,   6.860574830E-02, 
                3.642791550E-05,  -8.833611190E-08,   3.650810210E-11,
               -1.970289450E+04,  -1.343777040E+01] ),
       NASA( [  995.00,  5000.00], [  2.105184820E+01,   5.051990210E-02, 
               -1.803628830E-05,   2.911107590E-09,  -1.747627100E-13,
               -2.596615730E+04,  -1.136055810E+02] )
             )
       )

species(name = "SPC(1177)",
    atoms = " C:7  H:6  O:1 ",
    thermo = (
       NASA( [  300.00,   995.00], [  3.611990540E+00,   1.991649980E-02, 
                7.106463680E-05,  -1.035355460E-07,   3.929606410E-11,
               -1.745318830E+04,  -1.612765980E+01] ),
       NASA( [  995.00,  5000.00], [  1.605146570E+01,   2.121260280E-02, 
               -8.225416430E-06,   1.402164380E-09,  -8.717767130E-14,
               -2.246847650E+04,  -8.884101300E+01] )
             )
       )

species(name = "SPC(1199)",
    atoms = " C:9  H:19  O:2 ",
    thermo = (
       NASA( [  300.00,   995.00], [  3.316148570E+00,   8.583878010E-02, 
                1.090318950E-05,  -7.141484020E-08,   3.219849870E-11,
               -3.807570380E+04,  -1.501653960E+01] ),
       NASA( [  995.00,  5000.00], [  2.503290780E+01,   5.228275360E-02, 
               -1.952929360E-05,   3.255159550E-09,  -1.997573530E-13,
               -4.505813750E+04,  -1.330487660E+02] )
             )
       )

species(name = "SPC(1203)",
    atoms = " C:9  H:20  O:2 ",
    thermo = (
       NASA( [  300.00,   995.00], [  3.266199370E+00,   8.758988070E-02, 
                2.042671080E-05,  -8.563734020E-08,   3.770199590E-11,
               -5.636353850E+04,  -1.567326070E+01] ),
       NASA( [  995.00,  5000.00], [  2.707773800E+01,   5.314696950E-02, 
               -2.002608350E-05,   3.355378630E-09,  -2.065634910E-13,
               -6.413582460E+04,  -1.456753340E+02] )
             )
       )

species(name = "SPC(17)",
    atoms = " C:13  H:27 ",
    thermo = (
       NASA( [  300.00,   995.00], [  2.853317170E+00,   1.093119560E-01, 
                2.337255690E-05,  -9.737052800E-08,   4.235696490E-11,
               -3.577188080E+04,  -1.263998990E+01] ),
       NASA( [  995.00,  5000.00], [  2.790818310E+01,   7.576671480E-02, 
               -2.732114430E-05,   4.438122210E-09,  -2.676175020E-13,
               -4.408347200E+04,  -1.501008520E+02] )
             )
       )

species(name = "SPC(1347)",
    atoms = " C:13  H:27  O:2 ",
    thermo = (