#
# Generated from file chem.inp
# by ck2cti on Mon Jun  7 20:36:20 2010
#
units(length = "cm", time = "s", quantity = "mol", act_energy = "cal/mol")


ideal_gas(name = "chem",
      elements = " H  C  O  N  Ne  Ar  He  Si  S ",
      species = """ Ar  N2  SPC(1)  SPC(2)  SPC(3)  SPC(4)  SPC(5)  O2(6)  SPC(7)  SPC(8) 
                   HO2J(43)  SPC(17)  C11H9J(66)  SPC(117)  SPC(120)  SPC(136)  SPC(137)  SPC(119)  H2O2(101)  SPC(218) 
                   SPC(254)  SPC(268)  SPC(261)  SPC(271)  SPC(395)  SPC(439)  SPC(455) """,
      reactions = "all",
      initial_state = state(temperature = 300.0,
                        pressure = OneAtm)    )



#-------------------------------------------------------------------------------
#  Species data 
#-------------------------------------------------------------------------------

species(name = "Ar",
    atoms = " Ar:1 ",
    thermo = (
       NASA( [  200.00,  1000.00], [  2.500000000E+00,   0.000000000E+00, 
                0.000000000E+00,   0.000000000E+00,   0.000000000E+00,
               -7.453750000E+02,   4.379674900E+00] ),
       NASA( [ 1000.00,  6000.00], [  2.500000000E+00,   0.000000000E+00, 
                0.000000000E+00,   0.000000000E+00,   0.000000000E+00,
               -7.453750000E+02,   4.379674900E+00] )
             ),
    note = "L 6/88"
       )

species(name = "N2",
    atoms = " N:2 ",
    thermo = (
       NASA( [  200.00,  1000.00], [  3.531005280E+00,  -1.236609880E-04, 
               -5.029994330E-07,   2.435306120E-09,  -1.408812350E-12,
               -1.046976280E+03,   2.967470380E+00] ),
       NASA( [ 1000.00,  6000.00], [  2.952576370E+00,   1.396900400E-03, 
               -4.926316030E-07,   7.860101950E-11,  -4.607552040E-15,
               -9.239486880E+02,   5.871887620E+00] )
             ),
    note = "G 8/02"
       )

species(name = "SPC(1)",
    atoms = " C:16  H:26 ",
    thermo = (
       NASA( [  300.00,   995.00], [  2.207951290E+00,   1.037810960E-01, 
                8.650487520E-05,  -1.773833100E-07,   7.201115540E-11,
               -3.956694210E+04,  -1.563249630E+01] ),
       NASA( [  995.00,  5000.00], [  3.576468400E+01,   7.380902610E-02, 
               -2.648247720E-05,   4.288468070E-09,  -2.579467940E-13,
               -5.143931340E+04,  -2.034584320E+02] )
             )
       )

species(name = "SPC(2)",
    atoms = " C:11  H:24 ",
    thermo = (
       NASA( [  300.00,   995.00], [  2.806602240E+00,   8.834044130E-02, 
                4.402788810E-05,  -1.106075210E-07,   4.595582030E-11,
               -5.178891950E+04,  -1.544619700E+01] ),
       NASA( [  995.00,  5000.00], [  2.600614840E+01,   6.388924380E-02, 
               -2.284074830E-05,   3.690271540E-09,  -2.216932930E-13,
               -5.981226690E+04,  -1.443723550E+02] )
             )
       )

species(name = "SPC(3)",
    atoms = " C:13  H:28 ",
    thermo = (
       NASA( [  300.00,   995.00], [  2.581511030E+00,   1.089987390E-01, 
                4.095156050E-05,  -1.209089110E-07,   5.126246480E-11,
               -5.911419370E+04,  -1.486353300E+01] ),
       NASA( [  995.00,  5000.00], [  3.070534950E+01,   7.496866510E-02, 
               -2.687816100E-05,   4.351268800E-09,  -2.617681800E-13,
               -6.862328670E+04,  -1.700635270E+02] )
             )
       )

species(name = "SPC(4)",
    atoms = " C:11  H:10 ",
    thermo = (
       NASA( [  300.00,   995.00], [  2.917658030E+00,   3.265254020E-02, 
                1.020906050E-04,  -1.480989180E-07,   5.597307040E-11,
               -1.926714350E+03,  -2.201838620E+01] ),
       NASA( [  995.00,  5000.00], [  1.995430520E+01,   3.655355240E-02, 
               -1.291165840E-05,   2.061363910E-09,  -1.226167260E-13,
               -8.900713040E+03,  -1.221327620E+02] )
             )
       )

species(name = "SPC(5)",
    atoms = " C:16  H:34 ",
    thermo = (
       NASA( [  300.00,   995.00], [  2.243874210E+00,   1.399861840E-01, 
                3.633706920E-05,  -1.363609950E-07,   5.922243160E-11,
               -6.998312590E+04,  -1.359027800E+01] ),
       NASA( [  995.00,  5000.00], [  3.775415110E+01,   9.158779720E-02, 
               -3.293428010E-05,   5.342764690E-09,  -3.218805120E-13,
               -8.172083700E+04,  -2.082010270E+02] )
             )
       )

species(name = "O2(6)",
    atoms = " O:2 ",
    thermo = (
       NASA( [  300.00,   995.00], [  3.545084030E+00,  -1.390033420E-03, 
                6.244308680E-06,  -6.251864280E-09,   2.041197770E-12,
               -4.494153520E+03,  -5.704726150E+00] ),
       NASA( [  995.00,  5000.00], [  3.315085470E+00,   1.320064650E-03, 
               -5.327143950E-07,   9.201493710E-11,  -5.758113180E-15,
               -4.536774930E+03,  -5.040426370E+00] )
             )
       )

species(name = "SPC(7)",
    atoms = " C:19  H:40 ",
    thermo = (
       NASA( [  300.00,   995.00], [  1.906237400E+00,   1.709736300E-01, 
                3.172257780E-05,  -1.518130800E-07,   6.718239840E-11,
               -8.073986630E+04,  -1.194054070E+01] ),
       NASA( [  995.00,  5000.00], [  4.480295270E+01,   1.082069290E-01, 
               -3.899039920E-05,   6.334260580E-09,  -3.819928440E-13,
               -9.470619570E+04,  -2.459620450E+02] )
             )
       )

species(name = "SPC(8)",
    atoms = " C:21  H:44 ",
    thermo = (
       NASA( [  300.00,   995.00], [  1.681146190E+00,   1.916319270E-01, 
                2.864625020E-05,  -1.621144690E-07,   7.248904300E-11,
               -8.786046850E+04,  -1.067105800E+01] ),
       NASA( [  995.00,  5000.00], [  4.950215380E+01,   1.192863510E-01, 
               -4.302781190E-05,   6.995257830E-09,  -4.220677320E-13,
               -1.033125430E+05,  -2.709663990E+02] )
             )
       )

species(name = "HO2J(43)",
    atoms = " H:1  O:2 ",
    thermo = (
       NASA( [  300.00,   995.00], [  4.033833180E+00,  -1.431108130E-03, 
                9.297961950E-06,  -8.814919660E-09,   2.738988180E-12,
               -7.140876590E+03,  -1.443352680E+01] ),
       NASA( [  995.00,  5000.00], [  3.243804190E+00,   3.660652140E-03, 
               -1.265897150E-06,   1.977767430E-10,  -1.158064230E-14,
               -7.078501700E+03,  -1.110262050E+01] )
             )
       )

species(name = "SPC(17)",
    atoms = " C:16  H:25 ",
    thermo = (
       NASA( [  300.00,   995.00], [  2.046089000E+00,   1.124967340E-01, 
                5.464524070E-05,  -1.439955890E-07,   6.065630260E-11,
               -2.267635030E+04,  -1.870154670E+01] ),
       NASA( [  995.00,  5000.00], [  3.522765670E+01,   7.245788190E-02, 
               -2.571783470E-05,   4.127780590E-09,  -2.467191650E-13,
               -3.390103840E+04,  -2.018400080E+02] )
             )
       )

species(name = "C11H9J(66)",
    atoms = " C:11  H:9 ",
    thermo = (
       NASA( [  300.00,   995.00], [  2.409682560E+00,   3.922092200E-02, 
                8.288294810E-05,  -1.303034770E-07,   5.041675440E-11,
                1.638717940E+04,  -2.235487190E+01] ),
       NASA( [  995.00,  5000.00], [  2.094474030E+01,   3.310353260E-02, 
               -1.099464310E-05,   1.668725510E-09,  -9.553406680E-14,
                9.312753740E+03,  -1.286969920E+02] )
             )
       )

species(name = "SPC(117)",
    atoms = " C:16  H:25  O:2 ",
    thermo = (
       NASA( [  300.00,   995.00], [  1.913691360E+00,   1.215525330E-01, 
                5.521245140E-05,  -1.536054440E-07,   6.534679770E-11,
               -3.431914210E+04,  -1.219088090E+01] ),
       NASA( [  995.00,  5000.00], [  3.932817010E+01,   7.338113090E-02, 
               -2.628258040E-05,   4.248503160E-09,  -2.552073990E-13,
               -4.682599520E+04,  -2.179395080E+02] )
             )
       )

species(name = "SPC(120)",
    atoms = " C:16  H:26  O:2 ",
    thermo = (
       NASA( [  300.00,   995.00], [  1.863742160E+00,   1.233036330E-01, 
                6.473597270E-05,  -1.678279440E-07,   7.085029490E-11,
               -5.260697690E+04,  -1.284760210E+01] ),
       NASA( [  995.00,  5000.00], [  4.137300030E+01,   7.424534690E-02, 
               -2.677937040E-05,   4.348722250E-09,  -2.620135370E-13,
               -6.590368230E+04,  -2.305660760E+02] )
             )
       )

species(name = "SPC(136)",
    atoms = " C:11  H:9  O:2 ",
    thermo = (
       NASA( [  300.00,   995.00], [  2.822061710E+00,   5.330975060E-02, 
                5.767095120E-05,  -1.091103080E-07,   4.382133060E-11,
                5.337680220E+03,  -1.950744420E+01] ),
       NASA( [  995.00,  5000.00], [  2.246321340E+01,   3.739226060E-02, 
               -1.336272240E-05,   2.149586130E-09,  -1.285597770E-13,
               -1.691830840E+03,  -1.298485460E+02] )
             )
       )

species(name = "SPC(137)",
    atoms = " C:11  H:10  O:2 ",
    thermo = (
       NASA( [  300.00,   995.00], [  2.772112520E+00,   5.506085120E-02, 
                6.719447260E-05,  -1.233328080E-07,   4.932482780E-11,
               -1.295015450E+04,  -2.016416540E+01] ),
       NASA( [  995.00,  5000.00], [  2.450804360E+01,   3.825647650E-02, 
               -1.385951230E-05,   2.249805210E-09,  -1.353659150E-13,
               -2.076951790E+04,  -1.424751140E+02] )
             )
       )

species(name = "SPC(119)",
    atoms = " C:16  H:24 ",
    thermo = (
       NASA( [  300.00,   995.00], [  2.121635230E+00,   1.021814350E-01, 
                7.720524680E-05,  -1.658985380E-07,   6.797541920E-11,
               -2.575250250E+04,  -1.375753110E+01] ),
       NASA( [  995.00,  5000.00], [  3.537528160E+01,   6.912787010E-02, 
               -2.465488100E-05,   3.975303080E-09,  -2.383880720E-13,
               -3.735168920E+04,  -1.990531150E+02] )
             )
       )

species(name = "H2O2(101)",
    atoms = " H:2  O:2 ",
    thermo = (
       NASA( [  300.00,   995.00], [  3.817423580E+00,   2.540327600E-03, 
                9.810987090E-06,  -1.347332970E-08,   5.011927790E-12,
               -2.387064870E+04,  -1.390777050E+01] ),
       NASA( [  995.00,  5000.00], [  5.169243800E+00,   3.409558580E-03, 
               -1.001635710E-06,   1.374107460E-10,  -7.241835050E-15,
               -2.445172800E+04,  -2.199085440E+01] )
             )
       )

species(name = "SPC(218)",
    atoms = " C:16  H:23 ",
    thermo = (
       NASA( [  300.00,   995.00], [  2.149528960E+00,   9.836908590E-02, 
                8.202509180E-05,  -1.696128260E-07,   6.908552380E-11,
               -8.769248600E+03,  -1.488068220E+01] ),
       NASA( [  995.00,  5000.00], [  3.507551690E+01,   6.739240240E-02, 
               -2.411113360E-05,   3.893256560E-09,  -2.336499310E-13,
               -2.034083880E+04,  -1.987861200E+02] )
             )
       )

species(name = "SPC(254)",
    atoms = " C:16  H:23  O:2 ",
    thermo = (
       NASA( [  300.00,   995.00], [  1.827531530E+00,   1.225236280E-01, 
                4.051311490E-05,  -1.383539970E-07,   6.036905090E-11,
               -2.084626910E+04,  -1.183652010E+01] ),
       NASA( [  995.00,  5000.00], [  3.991919800E+01,   6.738499800E-02, 
               -2.407981200E-05,   3.888358830E-09,  -2.334263320E-13,
               -3.327773830E+04,  -2.197928360E+02] )
             )
       )

species(name = "SPC(268)",
    atoms = " C:16  H:24  O:2 ",
    thermo = (
       NASA( [  300.00,   995.00], [  1.777582330E+00,   1.242747290E-01, 
                5.003663620E-05,  -1.525764970E-07,   6.587254820E-11,
               -3.913410380E+04,  -1.249324120E+01] ),
       NASA( [  995.00,  5000.00], [  4.196402820E+01,   6.824921390E-02, 
               -2.457660200E-05,   3.988577910E-09,  -2.402324710E-13,
               -5.235542540E+04,  -2.324194040E+02] )
             )
       )

species(name = "SPC(261)",
    atoms = " C:16  H:23  O:2 ",
    thermo = (
       NASA( [  300.00,   995.00], [  2.050367000E+00,   1.150174600E-01, 
                5.720996100E-05,  -1.520141830E-07,   6.433212080E-11,
               -2.051463940E+04,  -1.138978800E+01] ),
       NASA( [  995.00,  5000.00], [  3.819208320E+01,   6.967398450E-02, 
               -2.509825920E-05,   4.073244070E-09,  -2.453386920E-13,
               -3.265490910E+04,  -2.104351110E+02] )
             )
       )

species(name = "SPC(271)",
    atoms = " C:16  H:24  O:2 ",
    thermo = (
       NASA( [  300.00,   995.00], [  2.000417800E+00,   1.167685610E-01, 
                6.673348230E-05,  -1.662366830E-07,   6.983561810E-11,
               -3.880247410E+04,  -1.204650920E+01] ),
       NASA( [  995.00,  5000.00], [  4.023691340E+01,   7.053820040E-02, 
               -2.559504920E-05,   4.173463150E-09,  -2.521448310E-13,
               -5.173259620E+04,  -2.230616790E+02] )
             )
       )

species(name = "SPC(395)",
    atoms = " C:16  H:23  O:2 ",
    thermo = (
       NASA( [  300.00,   995.00], [  2.028311530E+00,   1.129562120E-01, 
                7.155332740E-05,  -1.699509700E-07,   7.094572280E-11,
               -2.181922030E+04,  -1.316966030E+01] ),
       NASA( [  995.00,  5000.00], [  3.993714870E+01,   6.880273270E-02, 
               -2.505130180E-05,   4.091416630E-09,  -2.474066890E-13,
               -3.472174580E+04,  -2.227946840E+02] )
             )
       )

species(name = "SPC(439)",
    atoms = " C:16  H:23  O:4 ",
    thermo = (
       NASA( [  300.00,   995.00], [  1.706314100E+00,   1.371107540E-01, 
                3.004135040E-05,  -1.386921420E-07,   6.222924990E-11,
               -3.385444870E+04,  -9.985256320E+00] ),
       NASA( [  995.00,  5000.00], [  4.478082980E+01,   6.879532830E-02, 
               -2.501998020E-05,   4.086518910E-09,  -2.471830910E-13,
               -4.761685320E+04,  -2.436611570E+02] )
             )
       )

species(name = "SPC(455)",
    atoms = " C:16  H:24  O:4 ",
    thermo = (
       NASA( [  300.00,   995.00], [  1.656364900E+00,   1.388618550E-01, 
                3.956487180E-05,  -1.529146420E-07,   6.773274710E-11,
               -5.214228340E+04,  -1.064197750E+01] ),
       NASA( [  995.00,  5000.00], [  4.682566000E+01,   6.965954420E-02, 
               -2.551677020E-05,   4.186737990E-09,  -2.539892290E-13,
               -6.669454030E+04,  -2.562877250E+02] )
             )
       )



#-------------------------------------------------------------------------------
#  Reaction data 
#-------------------------------------------------------------------------------

#  Reaction 1
# Disproportionation estimate: (Average:)  O_Orad     C_rad/H/OneDeC      
reaction(  "HO2J(43) + SPC(17) <=> O2(6) + SPC(1)",  [3.00000E+11, 0, 0])

#  Reaction 2
# primary_initiation exact:   RH     O2d      (Ea computed using deltaHrxn(T=298K) of 28.86735206942369 kcal/mol) 
reaction(  "SPC(1) + O2(6) => SPC(17) + HO2J(43)",  [4.00000E+16, 0, 28.8673])

#  Reaction 3
# Disproportionation estimate: (Average:)  O_Orad     C_rad/H2/Cb      
reaction(  "HO2J(43) + C11H9J(66) <=> O2(6) + SPC(4)",  [3.00000E+11, 0, 0])

#  Reaction 4
# primary_initiation exact:   RH     O2d      (Ea computed using deltaHrxn(T=298K) of 31.467158713826272 kcal/mol) 
reaction(  "SPC(4) + O2(6) => C11H9J(66) + HO2J(43)",  [6.00000E+16, 0, 31.4672])

#  Reaction 5
# H_Abstraction estimate: (Average:)  C_rad/H2/Cb     C/H2/OneDeC      
reaction(  "C11H9J(66) + SPC(1) <=> SPC(4) + SPC(17)",  [3.03979E+06, 1.88583, 9.44833])

#  Reaction 6
# R_Addition_MultipleBond estimate: (Average:)  O2d     C_rad/H/OneDeC      
reaction(  "O2(6) + SPC(17) <=> SPC(117)",  [7.54000E+12, 0, 0])

#  Reaction 7
# O2_addition exact:   R_rad     O2d      
reaction(  "SPC(17) + O2(6) => SPC(117)",  [2.00000E+11, 0, 0])

#  Reaction 8
# R_Recombination estimate: (Average:)  C_rad/H/OneDeC     O_rad/NonDe      
reaction(  "SPC(17) + HO2J(43) <=> SPC(120)",  [1.64248E+13, -0.15, 0.31])

#  Reaction 9
# H_Abstraction estimate: (Average:)  C/H2/OneDeC     O_rad/NonDeO      
reaction(  "SPC(1) + SPC(117) <=> SPC(17) + SPC(120)",  [2.49005E+09, 0.95, 5.7515])

#  Reaction 10
# H_Abstraction estimate: (Average:)  C_rad/H2/Cb     O/H/NonDeO      
reaction(  "C11H9J(66) + SPC(120) <=> SPC(4) + SPC(117)",  [1.01525E+00, 3.29, 1.0725])

#  Reaction 11
# Disproportionation estimate: (Average:)  O_rad/NonDeO     O_Orad      
reaction(  "SPC(117) + HO2J(43) <=> SPC(120) + O2(6)",  [1.75000E+10, 0, -3.275])

#  Reaction 12
# R_Addition_MultipleBond estimate: (Average:)  O2d     C_rad/H2/Cb      
reaction(  "O2(6) + C11H9J(66) <=> SPC(136)",  [4.52000E+12, 0, 0])

#  Reaction 13
# O2_addition exact:   R_rad     O2d      
reaction(  "C11H9J(66) + O2(6) => SPC(136)",  [2.00000E+11, 0, 0])

#  Reaction 14
# R_Recombination estimate: (Average:)  C_rad/H2/Cb     O_rad/NonDe      
reaction(  "C11H9J(66) + HO2J(43) <=> SPC(137)",  [1.64248E+13, -0.15, 0.31])

#  Reaction 15
# H_Abstraction estimate: (Average:)  C/H2/OneDeC     O_rad/NonDeO      
reaction(  "SPC(1) + SPC(136) <=> SPC(17) + SPC(137)",  [2.49005E+09, 0.95, 5.7515])

#  Reaction 16
# H_Abstraction estimate: (Average:)  C_rad/H2/Cb     O/H/NonDeO      
reaction(  "C11H9J(66) + SPC(137) <=> SPC(4) + SPC(136)",  [1.01525E+00, 3.29, 1.0725])

#  Reaction 17
# H_Abstraction exact:   O/H/NonDeO     O_rad/NonDeO      (Ea computed using deltaHrxn(T=298K) of 2.1957010432060997E-7 kcal/mol) 
reaction(  "SPC(120) + SPC(136) <=> SPC(117) + SPC(137)",  [1.00000E+10, 0, 3.3])

#  Reaction 18
# Disproportionation estimate: (Average:)  O_rad/NonDeO     O_Orad      
reaction(  "SPC(136) + HO2J(43) <=> SPC(137) + O2(6)",  [1.75000E+10, 0, -3.275])

#  Reaction 19
# Disproportionation estimate: (Average:)  C_rad/H/OneDeC     C/H2/Nd_Csrad      
reaction(  "SPC(17) + SPC(17) <=> SPC(1) + SPC(119)",  [1.02600E+14, -0.35, 0])

#  Reaction 20
# Disproportionation_O2d exact:   O2d     C/H2/Nd_Csrad      
reaction(  "O2(6) + SPC(17) <=> HO2J(43) + SPC(119)",  [9.03300E+10, 0, 0])

#  Reaction 21
# Disproportionation estimate: (Average:)  C_rad/H2/Cb     C/H2/Nd_Csrad      
reaction(  "C11H9J(66) + SPC(17) <=> SPC(4) + SPC(119)",  [2.00890E+12, 0, -0.04333])

#  Reaction 22
# Disproportionation estimate: (Average:)  O_rad/NonDeO     C/H2/Nd_Csrad      
reaction(  "SPC(117) + SPC(17) <=> SPC(120) + SPC(119)",  [4.82000E+13, 0, 0])

#  Reaction 23
# HO2_Elimination_from_PeroxyRadical estimate: (Average:)  R2OO_HNd_HDe      
reaction(  "SPC(117) => HO2J(43) + SPC(119)",  [8.00406E+10, 0.56333, 29.8])

#  Reaction 24
# Disproportionation estimate: (Average:)  O_rad/NonDeO     C/H2/Nd_Csrad      
reaction(  "SPC(136) + SPC(17) <=> SPC(137) + SPC(119)",  [4.82000E+13, 0, 0])

#  Reaction 25
# H_Abstraction estimate: (Average:)  C_rad/H/OneDeC     H2O2      
reaction(  "SPC(17) + H2O2(101) <=> SPC(1) + HO2J(43)",  [1.84098E+00, 3.33667, 1.13833])

#  Reaction 26
# H_Abstraction estimate: (Average:)  C_rad/H2/Cb     H2O2      
reaction(  "C11H9J(66) + H2O2(101) <=> SPC(4) + HO2J(43)",  [2.03050E+00, 3.29, 1.0725])

#  Reaction 27
# Disproportionation estimate: (Average:)  O_rad/NonDeO     O_Orad      
reaction(  "HO2J(43) + HO2J(43) <=> H2O2(101) + O2(6)",  [1.75000E+10, 0, -3.275])

#  Reaction 28
# Disproportionation estimate: (Average:)  O_rad/NonDeO     C/H2/Nd_Csrad      
reaction(  "HO2J(43) + SPC(17) <=> H2O2(101) + SPC(119)",  [4.82000E+13, 0, 0])

#  Reaction 29
# H_Abstraction estimate: (Average:)  O_rad/NonDeO     H2O2      (Ea computed using deltaHrxn(T=298K) of -3.0697143667867497 kcal/mol) 
reaction(  "SPC(117) + H2O2(101) <=> SPC(120) + HO2J(43)",  [2.00000E+10, 0, -1.30457])

#  Reaction 30
# H_Abstraction estimate: (Average:)  O_rad/NonDeO     H2O2      (Ea computed using deltaHrxn(T=298K) of -3.069714147216656 kcal/mol) 
reaction(  "SPC(136) + H2O2(101) <=> SPC(137) + HO2J(43)",  [2.00000E+10, 0, -1.30457])

#  Reaction 31
# H_Abstraction estimate: (Average:)  C_rad/H/OneDeC     H2O2      
reaction(  "SPC(218) + H2O2(101) <=> SPC(119) + HO2J(43)",  [1.84098E+00, 3.33667, 1.13833])

#  Reaction 32
# H_Abstraction estimate: (Average:)  C/H2/OneDeC     C_rad/H/OneDeC      
reaction(  "SPC(119) + SPC(17) <=> SPC(218) + SPC(1)",  [3.03979E+06, 1.88583, 9.44833])

#  Reaction 33
# H_Abstraction estimate: (Average:)  C/H2/OneDeC     C_rad/H2/Cb      
reaction(  "SPC(119) + C11H9J(66) <=> SPC(218) + SPC(4)",  [3.03979E+06, 1.88583, 9.44833])

#  Reaction 34
# H_Abstraction estimate: (Average:)  C/H2/OneDeC     O_rad/NonDeO      
reaction(  "SPC(119) + SPC(117) <=> SPC(218) + SPC(120)",  [2.49005E+09, 0.95, 5.7515])

#  Reaction 35
# H_Abstraction estimate: (Average:)  C/H2/OneDeC     O_rad/NonDeO      
reaction(  "SPC(119) + SPC(136) <=> SPC(218) + SPC(137)",  [2.49005E+09, 0.95, 5.7515])

#  Reaction 36
# Disproportionation estimate: (Average:)  O_Orad     C_rad/H/OneDeC      
reaction(  "HO2J(43) + SPC(218) <=> O2(6) + SPC(119)",  [3.00000E+11, 0, 0])

#  Reaction 37
# Disproportionation estimate: (Average:)  C/H2/Nd_Csrad     C_rad/H/OneDeC      
reaction(  "SPC(17) + SPC(218) <=> SPC(119) + SPC(119)",  [1.02600E+14, -0.35, 0])

#  Reaction 38
# primary_initiation exact:   RH     O2d      (Ea computed using deltaHrxn(T=298K) of 28.56773103416206 kcal/mol) 
reaction(  "SPC(119) + O2(6) => SPC(218) + HO2J(43)",  [4.00000E+16, 0, 28.5677])

#  Reaction 39
# R_Addition_MultipleBond estimate: (Average:)  O2d     C_rad/H/OneDeC      
reaction(  "O2(6) + SPC(218) <=> SPC(254)",  [7.54000E+12, 0, 0])

#  Reaction 40
# O2_addition exact:   R_rad     O2d      
reaction(  "SPC(218) + O2(6) => SPC(254)",  [2.00000E+11, 0, 0])

#  Reaction 41
# R_Recombination estimate: (Average:)  C_rad/H/OneDeC     O_rad/NonDe      
reaction(  "SPC(218) + HO2J(43) <=> SPC(268)",  [1.64248E+13, -0.15, 0.31])

#  Reaction 42
# H_Abstraction estimate: (Average:)  C/H2/OneDeC     O_rad/NonDeO      
reaction(  "SPC(1) + SPC(254) <=> SPC(17) + SPC(268)",  [2.49005E+09, 0.95, 5.7515])

#  Reaction 43
# H_Abstraction estimate: (Average:)  C_rad/H2/Cb     O/H/NonDeO      
reaction(  "C11H9J(66) + SPC(268) <=> SPC(4) + SPC(254)",  [1.01525E+00, 3.29, 1.0725])

#  Reaction 44
# H_Abstraction exact:   O/H/NonDeO     O_rad/NonDeO      (Ea computed using deltaHrxn(T=298K) of 2.8702017118575895E-7 kcal/mol) 
reaction(  "SPC(120) + SPC(254) <=> SPC(117) + SPC(268)",  [1.00000E+10, 0, 3.3])

#  Reaction 45
# H_Abstraction exact:   O/H/NonDeO     O_rad/NonDeO      (Ea computed using deltaHrxn(T=298K) of 6.745007397057634E-8 kcal/mol) 
reaction(  "SPC(137) + SPC(254) <=> SPC(136) + SPC(268)",  [1.00000E+10, 0, 3.3])

#  Reaction 46
# H_Abstraction estimate: (Average:)  C/H2/OneDeC     O_rad/NonDeO      
reaction(  "SPC(119) + SPC(254) <=> SPC(218) + SPC(268)",  [2.49005E+09, 0.95, 5.7515])

#  Reaction 47
# H_Abstraction estimate: (Average:)  H2O2     O_rad/NonDeO      (Ea computed using deltaHrxn(T=298K) of -3.0697140797665767 kcal/mol) 
reaction(  "H2O2(101) + SPC(254) <=> HO2J(43) + SPC(268)",  [2.00000E+10, 0, -1.30457])

#  Reaction 48
# Disproportionation estimate: (Average:)  O_rad/NonDeO     O_Orad      
reaction(  "SPC(254) + HO2J(43) <=> SPC(268) + O2(6)",  [1.75000E+10, 0, -3.275])

#  Reaction 49
# Disproportionation estimate: (Average:)  O_rad/NonDeO     C/H2/Nd_Csrad      
reaction(  "SPC(254) + SPC(17) <=> SPC(268) + SPC(119)",  [4.82000E+13, 0, 0])

#  Reaction 50
# R_Addition_MultipleBond estimate: (Average:)  O2d     C_rad/H/TwoDe      
reaction(  "O2(6) + SPC(218) <=> SPC(261)",  [7.54000E+12, 0, 0])

#  Reaction 51
# O2_addition exact:   R_rad     O2d      
reaction(  "SPC(218) + O2(6) => SPC(261)",  [2.00000E+11, 0, 0])

#  Reaction 52
# R_Recombination estimate: (Average:)  C_rad/H/TwoDe     O_rad/NonDe      
reaction(  "SPC(218) + HO2J(43) <=> SPC(271)",  [1.64248E+13, -0.15, 0.31])

#  Reaction 53
# H_Abstraction estimate: (Average:)  C/H2/OneDeC     O_rad/NonDeO      
reaction(  "SPC(1) + SPC(261) <=> SPC(17) + SPC(271)",  [2.49005E+09, 0.95, 5.7515])

#  Reaction 54
# H_Abstraction estimate: (Average:)  C_rad/H2/Cb     O/H/NonDeO      
reaction(  "C11H9J(66) + SPC(271) <=> SPC(4) + SPC(261)",  [1.01525E+00, 3.29, 1.0725])

#  Reaction 55
# H_Abstraction exact:   O/H/NonDeO     O_rad/NonDeO      (Ea computed using deltaHrxn(T=298K) of 2.8702017118575895E-7 kcal/mol) 
reaction(  "SPC(120) + SPC(261) <=> SPC(117) + SPC(271)",  [1.00000E+10, 0, 3.3])

#  Reaction 56
# H_Abstraction exact:   O/H/NonDeO     O_rad/NonDeO      (Ea computed using deltaHrxn(T=298K) of 6.745005975972163E-8 kcal/mol) 
reaction(  "SPC(137) + SPC(261) <=> SPC(136) + SPC(271)",  [1.00000E+10, 0, 3.3])

#  Reaction 57
# H_Abstraction estimate: (Average:)  C/H2/OneDeC     O_rad/NonDeO      
reaction(  "SPC(119) + SPC(261) <=> SPC(218) + SPC(271)",  [2.49005E+09, 0.95, 5.7515])

#  Reaction 58
# H_Abstraction estimate: (Average:)  H2O2     O_rad/NonDeO      (Ea computed using deltaHrxn(T=298K) of -3.069714079766591 kcal/mol) 
reaction(  "H2O2(101) + SPC(261) <=> HO2J(43) + SPC(271)",  [2.00000E+10, 0, -1.30457])

#  Reaction 59
# H_Abstraction exact:   O/H/NonDeO     O_rad/NonDeO      (Ea computed using deltaHrxn(T=298K) of 0.0 kcal/mol) 
reaction(  "SPC(268) + SPC(261) <=> SPC(254) + SPC(271)",  [1.00000E+10, 0, 3.3])

#  Reaction 60
# Disproportionation estimate: (Average:)  O_rad/NonDeO     O_Orad      
reaction(  "SPC(261) + HO2J(43) <=> SPC(271) + O2(6)",  [1.75000E+10, 0, -3.275])

#  Reaction 61
# Disproportionation estimate: (Average:)  O_rad/NonDeO     C/H2/Nd_Csrad      
reaction(  "SPC(261) + SPC(17) <=> SPC(271) + SPC(119)",  [4.82000E+13, 0, 0])

#  Reaction 62
# intra_H_migration estimate: (Average:)  R6H_RSSMS     O_rad_out     Cs_H_out_H/(NonDeC/Cs)      
reaction(  "SPC(261) <=> SPC(395)",  [1.30867E+06, 1.215, 16.5533])

#  Reaction 63
# H_Abstraction estimate: (Average:)  C_rad/H/OneDeC     H2O2      
reaction(  "SPC(395) + H2O2(101) <=> SPC(271) + HO2J(43)",  [1.84098E+00, 3.33667, 1.13833])

#  Reaction 64
# H_Abstraction estimate: (Average:)  C/H2/OneDeC     C_rad/H/OneDeC      
reaction(  "SPC(271) + SPC(17) <=> SPC(395) + SPC(1)",  [3.03979E+06, 1.88583, 9.44833])

#  Reaction 65
# H_Abstraction estimate: (Average:)  C/H2/OneDeC     C_rad/H2/Cb      
reaction(  "SPC(271) + C11H9J(66) <=> SPC(395) + SPC(4)",  [3.03979E+06, 1.88583, 9.44833])

#  Reaction 66
# H_Abstraction estimate: (Average:)  C/H2/OneDeC     O_rad/NonDeO      
reaction(  "SPC(271) + SPC(117) <=> SPC(395) + SPC(120)",  [2.49005E+09, 0.95, 5.7515])

#  Reaction 67
# H_Abstraction estimate: (Average:)  C/H2/OneDeC     O_rad/NonDeO      
reaction(  "SPC(271) + SPC(136) <=> SPC(395) + SPC(137)",  [2.49005E+09, 0.95, 5.7515])

#  Reaction 68
# H_Abstraction estimate: (Average:)  C/H2/OneDeC     C_rad/H/OneDeC      
reaction(  "SPC(271) + SPC(218) <=> SPC(395) + SPC(119)",  [3.03979E+06, 1.88583, 9.44833])

#  Reaction 69
# H_Abstraction estimate: (Average:)  C/H2/OneDeC     O_rad/NonDeO      
reaction(  "SPC(271) + SPC(254) <=> SPC(395) + SPC(268)",  [2.49005E+09, 0.95, 5.7515])

#  Reaction 70
# H_Abstraction estimate: (Average:)  C/H2/OneDeC     O_rad/NonDeO      
reaction(  "SPC(271) + SPC(261) <=> SPC(395) + SPC(271)",  [2.49005E+09, 0.95, 5.7515])

#  Reaction 71
# Disproportionation estimate: (Average:)  O_Orad     C_rad/H/OneDeC      
reaction(  "HO2J(43) + SPC(395) <=> O2(6) + SPC(271)",  [3.00000E+11, 0, 0])

#  Reaction 72
# Disproportionation estimate: (Average:)  C/H2/Nd_Csrad     C_rad/H/OneDeC      
reaction(  "SPC(17) + SPC(395) <=> SPC(119) + SPC(271)",  [1.02600E+14, -0.35, 0])

#  Reaction 73
# primary_initiation exact:   RH     O2d      (Ea computed using deltaHrxn(T=298K) of 28.567730850048363 kcal/mol) 
reaction(  "SPC(271) + O2(6) => SPC(395) + HO2J(43)",  [4.00000E+16, 0, 28.5677])

#  Reaction 74
# R_Addition_MultipleBond estimate: (Average:)  O2d     C_rad/H/OneDeC      
reaction(  "O2(6) + SPC(395) <=> SPC(439)",  [7.54000E+12, 0, 0])

#  Reaction 75
# O2_addition exact:   R_rad     O2d      
reaction(  "SPC(395) + O2(6) => SPC(439)",  [2.00000E+11, 0, 0])

#  Reaction 76
# R_Recombination estimate: (Average:)  C_rad/H/OneDeC     O_rad/NonDe      
reaction(  "SPC(395) + HO2J(43) <=> SPC(455)",  [1.64248E+13, -0.15, 0.31])

#  Reaction 77
# H_Abstraction estimate: (Average:)  C/H2/OneDeC     O_rad/NonDeO      
reaction(  "SPC(1) + SPC(439) <=> SPC(17) + SPC(455)",  [2.49005E+09, 0.95, 5.7515])

#  Reaction 78
# H_Abstraction estimate: (Average:)  C_rad/H2/Cb     O/H/NonDeO      
reaction(  "C11H9J(66) + SPC(455) <=> SPC(4) + SPC(439)",  [1.01525E+00, 3.29, 1.0725])

#  Reaction 79
# H_Abstraction exact:   O/H/NonDeO     O_rad/NonDeO      (Ea computed using deltaHrxn(T=298K) of 2.8867951584743423E-7 kcal/mol) 
reaction(  "SPC(120) + SPC(439) <=> SPC(117) + SPC(455)",  [1.00000E+10, 0, 3.3])

#  Reaction 80
# H_Abstraction exact:   O/H/NonDeO     O_rad/NonDeO      (Ea computed using deltaHrxn(T=298K) of 6.910941863225162E-8 kcal/mol) 
reaction(  "SPC(137) + SPC(439) <=> SPC(136) + SPC(455)",  [1.00000E+10, 0, 3.3])

#  Reaction 81
# H_Abstraction estimate: (Average:)  C/H2/OneDeC     O_rad/NonDeO      
reaction(  "SPC(119) + SPC(439) <=> SPC(218) + SPC(455)",  [2.49005E+09, 0.95, 5.7515])

#  Reaction 82
# H_Abstraction estimate: (Average:)  H2O2     O_rad/NonDeO      (Ea computed using deltaHrxn(T=298K) of -3.069714078107239 kcal/mol) 
reaction(  "H2O2(101) + SPC(439) <=> HO2J(43) + SPC(455)",  [2.00000E+10, 0, -1.30457])

#  Reaction 83
# H_Abstraction exact:   O/H/NonDeO     O_rad/NonDeO      (Ea computed using deltaHrxn(T=298K) of 1.6593588725299924E-9 kcal/mol) 
reaction(  "SPC(268) + SPC(439) <=> SPC(254) + SPC(455)",  [1.00000E+10, 0, 3.3])

#  Reaction 84
# H_Abstraction estimate: (Average:)  C/H2/OneDeC     O_rad/NonDeO      
reaction(  "SPC(271) + SPC(439) <=> SPC(395) + SPC(455)",  [2.49005E+09, 0.95, 5.7515])

#  Reaction 85
# H_Abstraction exact:   O/H/NonDeO     O_rad/NonDeO      (Ea computed using deltaHrxn(T=298K) of 1.6593588725299924E-9 kcal/mol) 
reaction(  "SPC(271) + SPC(439) <=> SPC(261) + SPC(455)",  [1.00000E+10, 0, 3.3])

#  Reaction 86