#
# Generated from file chem.inp
# by ck2cti on Mon Jun  7 19:16:06 2010
#
units(length = "cm", time = "s", quantity = "mol", act_energy = "cal/mol")


ideal_gas(name = "chem",
      elements = " H  C  O  N  Ne  Ar  He  Si  S ",
      species = """ SPC(1)  SPC(2)  SPC(3)  SPC(4)  SPC(5)  O2(6)  SPC(7)  SPC(8)  HO2J(43)  SPC(17) 
                   C11H9J(66)  SPC(117)  SPC(120)  SPC(136)  SPC(137)  SPC(119)  H2O2(101)  SPC(218)  SPC(254)  SPC(268) 
                   SPC(261)  SPC(271)  SPC(395)  SPC(439)  SPC(455)  SPC(171)  H2O(190)  SPC(173)  SPC(446)  SPC(458) 
                   SPC(664)  HOJ(103)  SPC(695)  SPC(70)  SPC(850)  SPC(854)  SPC(74)  SPC(948)  SPC(953)  SPC(525) 
                   SPC(1070)  SPC(1121)  SPC(75)  SPC(1212)  SPC(1216)  SPC(804)  SPC(1294)  SPC(71)  SPC(1412)  SPC(1416) 
                   SPC(76)  SPC(1504)  SPC(1508)  SPC(1373)  SPC(1603)  SPC(1620)  SPC(73)  SPC(1752)  SPC(1756)  SPC(533) 
                   SPC(72)  SPC(1876)  SPC(1879)  SPC(801)  SPC(1993)  SPC(2040)  SPC(1108)  SPC(52)  SPC(2176)  SPC(2243) 
                   SPC(665)  SPC(669)  SPC(2481) """,
      reactions = "all",
      initial_state = state(temperature = 300.0,
                        pressure = OneAtm)    )



#-------------------------------------------------------------------------------
#  Species data 
#-------------------------------------------------------------------------------

species(name = "SPC(1)",
    atoms = " C:16  H:26 ",
    thermo = (
       NASA( [  300.00,   995.00], [  2.207951290E+00,   1.037810960E-01, 
                8.650487520E-05,  -1.773833100E-07,   7.201115540E-11,
               -3.956694210E+04,  -1.563249630E+01] ),
       NASA( [  995.00,  5000.00], [  3.576468400E+01,   7.380902610E-02, 
               -2.648247720E-05,   4.288468070E-09,  -2.579467940E-13,
               -5.143931340E+04,  -2.034584320E+02] )
             )
       )

species(name = "SPC(2)",
    atoms = " C:11  H:24 ",
    thermo = (
       NASA( [  300.00,   995.00], [  2.806602240E+00,   8.834044130E-02, 
                4.402788810E-05,  -1.106075210E-07,   4.595582030E-11,
               -5.178891950E+04,  -1.544619700E+01] ),
       NASA( [  995.00,  5000.00], [  2.600614840E+01,   6.388924380E-02, 
               -2.284074830E-05,   3.690271540E-09,  -2.216932930E-13,
               -5.981226690E+04,  -1.443723550E+02] )
             )
       )

species(name = "SPC(3)",
    atoms = " C:13  H:28 ",
    thermo = (
       NASA( [  300.00,   995.00], [  2.581511030E+00,   1.089987390E-01, 
                4.095156050E-05,  -1.209089110E-07,   5.126246480E-11,
               -5.911419370E+04,  -1.486353300E+01] ),
       NASA( [  995.00,  5000.00], [  3.070534950E+01,   7.496866510E-02, 
               -2.687816100E-05,   4.351268800E-09,  -2.617681800E-13,
               -6.862328670E+04,  -1.700635270E+02] )
             )
       )

species(name = "SPC(4)",
    atoms = " C:11  H:10 ",
    thermo = (
       NASA( [  300.00,   995.00], [  2.917658030E+00,   3.265254020E-02, 
                1.020906050E-04,  -1.480989180E-07,   5.597307040E-11,
               -1.926714350E+03,  -2.201838620E+01] ),
       NASA( [  995.00,  5000.00], [  1.995430520E+01,   3.655355240E-02, 
               -1.291165840E-05,   2.061363910E-09,  -1.226167260E-13,
               -8.900713040E+03,  -1.221327620E+02] )
             )
       )

species(name = "SPC(5)",
    atoms = " C:16  H:34 ",
    thermo = (
       NASA( [  300.00,   995.00], [  2.243874210E+00,   1.399861840E-01, 
                3.633706920E-05,  -1.363609950E-07,   5.922243160E-11,
               -6.998312590E+04,  -1.359027800E+01] ),
       NASA( [  995.00,  5000.00], [  3.775415110E+01,   9.158779720E-02, 
               -3.293428010E-05,   5.342764690E-09,  -3.218805120E-13,
               -8.172083700E+04,  -2.082010270E+02] )
             )
       )

species(name = "O2(6)",
    atoms = " O:2 ",
    thermo = (
       NASA( [  300.00,   995.00], [  3.545084030E+00,  -1.390033420E-03, 
                6.244308680E-06,  -6.251864280E-09,   2.041197770E-12,
               -4.494153520E+03,  -5.704726150E+00] ),
       NASA( [  995.00,  5000.00], [  3.315085470E+00,   1.320064650E-03, 
               -5.327143950E-07,   9.201493710E-11,  -5.758113180E-15,
               -4.536774930E+03,  -5.040426370E+00] )
             )
       )

species(name = "SPC(7)",
    atoms = " C:19  H:40 ",
    thermo = (
       NASA( [  300.00,   995.00], [  1.906237400E+00,   1.709736300E-01, 
                3.172257780E-05,  -1.518130800E-07,   6.718239840E-11,
               -8.073986630E+04,  -1.194054070E+01] ),
       NASA( [  995.00,  5000.00], [  4.480295270E+01,   1.082069290E-01, 
               -3.899039920E-05,   6.334260580E-09,  -3.819928440E-13,
               -9.470619570E+04,  -2.459620450E+02] )
             )
       )

species(name = "SPC(8)",
    atoms = " C:21  H:44 ",
    thermo = (
       NASA( [  300.00,   995.00], [  1.681146190E+00,   1.916319270E-01, 
                2.864625020E-05,  -1.621144690E-07,   7.248904300E-11,
               -8.786046850E+04,  -1.067105800E+01] ),
       NASA( [  995.00,  5000.00], [  4.950215380E+01,   1.192863510E-01, 
               -4.302781190E-05,   6.995257830E-09,  -4.220677320E-13,
               -1.033125430E+05,  -2.709663990E+02] )
             )
       )

species(name = "HO2J(43)",
    atoms = " H:1  O:2 ",
    thermo = (
       NASA( [  300.00,   995.00], [  4.033833180E+00,  -1.431108130E-03, 
                9.297961950E-06,  -8.814919660E-09,   2.738988180E-12,
               -7.140876590E+03,  -1.443352680E+01] ),
       NASA( [  995.00,  5000.00], [  3.243804190E+00,   3.660652140E-03, 
               -1.265897150E-06,   1.977767430E-10,  -1.158064230E-14,
               -7.078501700E+03,  -1.110262050E+01] )
             )
       )

species(name = "SPC(17)",
    atoms = " C:16  H:25 ",
    thermo = (
       NASA( [  300.00,   995.00], [  2.046089000E+00,   1.124967340E-01, 
                5.464524070E-05,  -1.439955890E-07,   6.065630260E-11,
               -2.267635030E+04,  -1.870154670E+01] ),
       NASA( [  995.00,  5000.00], [  3.522765670E+01,   7.245788190E-02, 
               -2.571783470E-05,   4.127780590E-09,  -2.467191650E-13,
               -3.390103840E+04,  -2.018400080E+02] )
             )
       )

species(name = "C11H9J(66)",
    atoms = " C:11  H:9 ",
    thermo = (
       NASA( [  300.00,   995.00], [  2.409682560E+00,   3.922092200E-02, 
                8.288294810E-05,  -1.303034770E-07,   5.041675440E-11,
                1.638717940E+04,  -2.235487190E+01] ),
       NASA( [  995.00,  5000.00], [  2.094474030E+01,   3.310353260E-02, 
               -1.099464310E-05,   1.668725510E-09,  -9.553406680E-14,
                9.312753740E+03,  -1.286969920E+02] )
             )
       )

species(name = "SPC(117)",
    atoms = " C:16  H:25  O:2 ",
    thermo = (
       NASA( [  300.00,   995.00], [  1.913691360E+00,   1.215525330E-01, 
                5.521245140E-05,  -1.536054440E-07,   6.534679770E-11,
               -3.431914210E+04,  -1.219088090E+01] ),
       NASA( [  995.00,  5000.00], [  3.932817010E+01,   7.338113090E-02, 
               -2.628258040E-05,   4.248503160E-09,  -2.552073990E-13,
               -4.682599520E+04,  -2.179395080E+02] )
             )
       )

species(name = "SPC(120)",
    atoms = " C:16  H:26  O:2 ",
    thermo = (
       NASA( [  300.00,   995.00], [  1.863742160E+00,   1.233036330E-01, 
                6.473597270E-05,  -1.678279440E-07,   7.085029490E-11,
               -5.260697690E+04,  -1.284760210E+01] ),
       NASA( [  995.00,  5000.00], [  4.137300030E+01,   7.424534690E-02, 
               -2.677937040E-05,   4.348722250E-09,  -2.620135370E-13,
               -6.590368230E+04,  -2.305660760E+02] )
             )
       )

species(name = "SPC(136)",
    atoms = " C:11  H:9  O:2 ",
    thermo = (
       NASA( [  300.00,   995.00], [  2.822061710E+00,   5.330975060E-02, 
                5.767095120E-05,  -1.091103080E-07,   4.382133060E-11,
                5.337680220E+03,  -1.950744420E+01] ),
       NASA( [  995.00,  5000.00], [  2.246321340E+01,   3.739226060E-02, 
               -1.336272240E-05,   2.149586130E-09,  -1.285597770E-13,
               -1.691830840E+03,  -1.298485460E+02] )
             )
       )

species(name = "SPC(137)",
    atoms = " C:11  H:10  O:2 ",
    thermo = (
       NASA( [  300.00,   995.00], [  2.772112520E+00,   5.506085120E-02, 
                6.719447260E-05,  -1.233328080E-07,   4.932482780E-11,
               -1.295015450E+04,  -2.016416540E+01] ),
       NASA( [  995.00,  5000.00], [  2.450804360E+01,   3.825647650E-02, 
               -1.385951230E-05,   2.249805210E-09,  -1.353659150E-13,
               -2.076951790E+04,  -1.424751140E+02] )
             )
       )

species(name = "SPC(119)",
    atoms = " C:16  H:24 ",
    thermo = (
       NASA( [  300.00,   995.00], [  2.121635230E+00,   1.021814350E-01, 
                7.720524680E-05,  -1.658985380E-07,   6.797541920E-11,
               -2.575250250E+04,  -1.375753110E+01] ),
       NASA( [  995.00,  5000.00], [  3.537528160E+01,   6.912787010E-02, 
               -2.465488100E-05,   3.975303080E-09,  -2.383880720E-13,
               -3.735168920E+04,  -1.990531150E+02] )
             )
       )

species(name = "H2O2(101)",
    atoms = " H:2  O:2 ",
    thermo = (
       NASA( [  300.00,   995.00], [  3.817423580E+00,   2.540327600E-03, 
                9.810987090E-06,  -1.347332970E-08,   5.011927790E-12,
               -2.387064870E+04,  -1.390777050E+01] ),
       NASA( [  995.00,  5000.00], [  5.169243800E+00,   3.409558580E-03, 
               -1.001635710E-06,   1.374107460E-10,  -7.241835050E-15,
               -2.445172800E+04,  -2.199085440E+01] )
             )
       )

species(name = "SPC(218)",
    atoms = " C:16  H:23 ",
    thermo = (
       NASA( [  300.00,   995.00], [  2.149528960E+00,   9.836908590E-02, 
                8.202509180E-05,  -1.696128260E-07,   6.908552380E-11,
               -8.769248600E+03,  -1.488068220E+01] ),
       NASA( [  995.00,  5000.00], [  3.507551690E+01,   6.739240240E-02, 
               -2.411113360E-05,   3.893256560E-09,  -2.336499310E-13,
               -2.034083880E+04,  -1.987861200E+02] )
             )
       )

species(name = "SPC(254)",
    atoms = " C:16  H:23  O:2 ",
    thermo = (
       NASA( [  300.00,   995.00], [  1.827531530E+00,   1.225236280E-01, 
                4.051311490E-05,  -1.383539970E-07,   6.036905090E-11,
               -2.084626910E+04,  -1.183652010E+01] ),
       NASA( [  995.00,  5000.00], [  3.991919800E+01,   6.738499800E-02, 
               -2.407981200E-05,   3.888358830E-09,  -2.334263320E-13,
               -3.327773830E+04,  -2.197928360E+02] )
             )
       )

species(name = "SPC(268)",
    atoms = " C:16  H:24  O:2 ",
    thermo = (
       NASA( [  300.00,   995.00], [  1.777582330E+00,   1.242747290E-01, 
                5.003663620E-05,  -1.525764970E-07,   6.587254820E-11,
               -3.913410380E+04,  -1.249324120E+01] ),
       NASA( [  995.00,  5000.00], [  4.196402820E+01,   6.824921390E-02, 
               -2.457660200E-05,   3.988577910E-09,  -2.402324710E-13,
               -5.235542540E+04,  -2.324194040E+02] )
             )
       )

species(name = "SPC(261)",
    atoms = " C:16  H:23  O:2 ",
    thermo = (
       NASA( [  300.00,   995.00], [  2.050367000E+00,   1.150174600E-01, 
                5.720996100E-05,  -1.520141830E-07,   6.433212080E-11,
               -2.051463940E+04,  -1.138978800E+01] ),
       NASA( [  995.00,  5000.00], [  3.819208320E+01,   6.967398450E-02, 
               -2.509825920E-05,   4.073244070E-09,  -2.453386920E-13,
               -3.265490910E+04,  -2.104351110E+02] )
             )
       )

species(name = "SPC(271)",
    atoms = " C:16  H:24  O:2 ",
    thermo = (
       NASA( [  300.00,   995.00], [  2.000417800E+00,   1.167685610E-01, 
                6.673348230E-05,  -1.662366830E-07,   6.983561810E-11,
               -3.880247410E+04,  -1.204650920E+01] ),
       NASA( [  995.00,  5000.00], [  4.023691340E+01,   7.053820040E-02, 
               -2.559504920E-05,   4.173463150E-09,  -2.521448310E-13,
               -5.173259620E+04,  -2.230616790E+02] )
             )
       )

species(name = "SPC(395)",
    atoms = " C:16  H:23  O:2 ",
    thermo = (
       NASA( [  300.00,   995.00], [  2.028311530E+00,   1.129562120E-01, 
                7.155332740E-05,  -1.699509700E-07,   7.094572280E-11,
               -2.181922030E+04,  -1.316966030E+01] ),
       NASA( [  995.00,  5000.00], [  3.993714870E+01,   6.880273270E-02, 
               -2.505130180E-05,   4.091416630E-09,  -2.474066890E-13,
               -3.472174580E+04,  -2.227946840E+02] )
             )
       )

species(name = "SPC(439)",
    atoms = " C:16  H:23  O:4 ",
    thermo = (
       NASA( [  300.00,   995.00], [  1.706314100E+00,   1.371107540E-01, 
                3.004135040E-05,  -1.386921420E-07,   6.222924990E-11,
               -3.385444870E+04,  -9.985256320E+00] ),
       NASA( [  995.00,  5000.00], [  4.478082980E+01,   6.879532830E-02, 
               -2.501998020E-05,   4.086518910E-09,  -2.471830910E-13,
               -4.761685320E+04,  -2.436611570E+02] )
             )
       )

species(name = "SPC(455)",
    atoms = " C:16  H:24  O:4 ",
    thermo = (
       NASA( [  300.00,   995.00], [  1.656364900E+00,   1.388618550E-01, 
                3.956487180E-05,  -1.529146420E-07,   6.773274710E-11,
               -5.214228340E+04,  -1.064197750E+01] ),
       NASA( [  995.00,  5000.00], [  4.682566000E+01,   6.965954420E-02, 
               -2.551677020E-05,   4.186737990E-09,  -2.539892290E-13,
               -6.669454030E+04,  -2.562877250E+02] )
             )
       )

species(name = "SPC(171)",
    atoms = " C:16  H:25  O:1 ",
    thermo = (
       NASA( [  300.00,   995.00], [  2.075182420E+00,   1.084275050E-01, 
                8.335873610E-05,  -1.792665610E-07,   7.355555500E-11,
               -3.319554700E+04,  -1.188570200E+01] ),
       NASA( [  995.00,  5000.00], [  3.839390660E+01,   7.164486660E-02, 
               -2.583260020E-05,   4.197244950E-09,  -2.530137300E-13,
               -4.583007750E+04,  -2.140907140E+02] )
             )
       )

species(name = "H2O(190)",
    atoms = " H:2  O:1 ",
    thermo = (
       NASA( [  300.00,   995.00], [  3.964391330E+00,  -3.606962430E-04, 
                1.973139610E-06,  -3.634331330E-10,  -2.289850430E-13,
               -3.441994150E+04,  -1.287678740E+01] ),
       NASA( [  995.00,  5000.00], [  2.861796580E+00,   2.741788030E-03, 
               -6.990329990E-07,   8.373981650E-11,  -3.874736190E-15,
               -3.413468000E+04,  -7.232065820E+00] )
             )
       )

species(name = "SPC(173)",
    atoms = " C:16  H:26  O:1 ",
    thermo = (
       NASA( [  300.00,   995.00], [  2.038783840E+00,   1.100336120E-01, 
                8.410478960E-05,  -1.807128900E-07,   7.409852120E-11,
               -5.940741360E+04,  -1.144393090E+01] ),
       NASA( [  995.00,  5000.00], [  3.846255220E+01,   7.347365160E-02, 
               -2.639446980E-05,   4.278599560E-09,  -2.575298640E-13,
               -7.209477730E+04,  -2.143156360E+02] )
             )
       )

species(name = "SPC(446)",
    atoms = " C:16  H:23  O:4 ",
    thermo = (
       NASA( [  300.00,   995.00], [  1.539352870E+00,   1.359992250E-01, 
                3.590381690E-05,  -1.458259660E-07,   6.487445130E-11,
               -3.337150560E+04,  -9.056311350E+00] ),
       NASA( [  995.00,  5000.00], [  4.545735510E+01,   6.773887120E-02, 
               -2.443502390E-05,   3.968808950E-09,  -2.391447700E-13,
               -4.747235860E+04,  -2.476545420E+02] )
             )
       )

species(name = "SPC(458)",
    atoms = " C:16  H:24  O:4 ",
    thermo = (
       NASA( [  300.00,   995.00], [  1.489403680E+00,   1.377503250E-01, 
                4.542733830E-05,  -1.600484660E-07,   7.037794850E-11,
               -5.165934030E+04,  -9.713032540E+00] ),
       NASA( [  995.00,  5000.00], [  4.750218530E+01,   6.860308710E-02, 
               -2.493181380E-05,   4.069028030E-09,  -2.459509080E-13,
               -6.655004570E+04,  -2.602811100E+02] )
             )
       )

species(name = "SPC(664)",
    atoms = " C:16  H:23  O:4 ",
    thermo = (
       NASA( [  300.00,   995.00], [  1.407206440E+00,   1.350838870E-01, 
                4.482374360E-05,  -1.568340430E-07,   6.890288750E-11,
               -3.517706820E+04,  -1.012408810E+01] ),
       NASA( [  995.00,  5000.00], [  4.633623000E+01,   6.774295770E-02, 
               -2.441383120E-05,   3.956213420E-09,  -2.379017370E-13,
               -4.972584150E+04,  -2.548346260E+02] )
             )
       )

species(name = "HOJ(103)",
    atoms = " H:1  O:1 ",
    thermo = (
       NASA( [  300.00,   995.00], [  3.472097460E+00,   1.427675820E-03, 
               -4.945230770E-06,   5.898219200E-09,  -2.154892820E-12,
               -5.268258560E+02,  -1.096441000E+01] ),
       NASA( [  995.00,  5000.00], [  2.934100380E+00,   9.267692620E-04, 
               -1.747990160E-07,   1.186559540E-11,  -6.701506360E-17,
               -2.878961820E+02,  -7.708955740E+00] )
             )
       )

species(name = "SPC(695)",
    atoms = " C:16  H:22  O:3 ",
    thermo = (
       NASA( [  300.00,   995.00], [  8.620642490E-01,   1.002658110E-01, 
                1.349306310E-04,  -2.440888930E-07,   9.780124320E-11,
               -5.006815660E+04,  -1.028803360E+01] ),
       NASA( [  995.00,  5000.00], [  4.526123660E+01,   6.295447010E-02, 
               -2.163366330E-05,   3.387517630E-09,  -1.987222870E-13,
               -6.589267010E+04,  -2.593853090E+02] )
             )
       )

species(name = "SPC(70)",
    atoms = " C:16  H:33 ",
    thermo = (
       NASA( [  300.00,   995.00], [  2.515680350E+00,   1.402994010E-01, 
                1.875806560E-05,  -1.128226120E-07,   5.031693170E-11,
               -4.664081290E+04,  -1.136673490E+01] ),
       NASA( [  995.00,  5000.00], [  3.495698470E+01,   9.238584680E-02, 
               -3.337726340E-05,   5.429618100E-09,  -3.277298340E-13,
               -5.718102240E+04,  -1.882383520E+02] )
             )
       )

species(name = "SPC(850)",
    atoms = " C:16  H:33  O:2 ",
    thermo = (
       NASA( [  300.00,   995.00], [  1.839679540E+00,   1.614742890E-01, 
               -5.778502490E-06,  -1.018877430E-07,   4.903089770E-11,
               -6.553555630E+04,  -1.012208780E+01] ),
       NASA( [  995.00,  5000.00], [  4.143187690E+01,   9.072026340E-02, 
               -3.238497580E-05,   5.225052350E-09,  -3.136077430E-13,
               -7.779121450E+04,  -2.229261750E+02] )
             )
       )

species(name = "SPC(854)",
    atoms = " C:16  H:34  O:2 ",
    thermo = (
       NASA( [  300.00,   995.00], [  1.789730350E+00,   1.632253890E-01, 
                3.745018870E-06,  -1.161102430E-07,   5.453439500E-11,
               -8.382339110E+04,  -1.077880900E+01] ),
       NASA( [  995.00,  5000.00], [  4.347670710E+01,   9.158447930E-02, 
               -3.288176580E-05,   5.325271430E-09,  -3.204138820E-13,
               -9.686890160E+04,  -2.355527430E+02] )
             )
       )

species(name = "SPC(74)",
    atoms = " C:16  H:33 ",
    thermo = (
       NASA( [  300.00,   995.00], [  2.642069280E+00,   1.401581400E-01, 
                1.665361760E-05,  -1.095718210E-07,   4.900473150E-11,
               -4.665942900E+04,  -1.209306280E+01] ),
       NASA( [  995.00,  5000.00], [  3.436263560E+01,   9.313031280E-02, 
               -3.378450850E-05,   5.511624030E-09,  -3.333363900E-13,
               -5.695662080E+04,  -1.849907130E+02] )
             )
       )

species(name = "SPC(948)",
    atoms = " C:16  H:33  O:2 ",
    thermo = (
       NASA( [  300.00,   995.00], [  1.839679540E+00,   1.614742890E-01, 
               -5.778502490E-06,  -1.018877430E-07,   4.903089770E-11,
               -6.553555630E+04,  -1.012208780E+01] ),
       NASA( [  995.00,  5000.00], [  4.143187690E+01,   9.072026340E-02, 
               -3.238497580E-05,   5.225052350E-09,  -3.136077430E-13,
               -7.779121450E+04,  -2.229261750E+02] )
             )
       )

species(name = "SPC(953)",
    atoms = " C:16  H:34  O:2 ",
    thermo = (
       NASA( [  300.00,   995.00], [  1.789730350E+00,   1.632253890E-01, 
                3.745018870E-06,  -1.161102430E-07,   5.453439500E-11,
               -8.382339110E+04,  -1.077880900E+01] ),
       NASA( [  995.00,  5000.00], [  4.347670710E+01,   9.158447930E-02, 
               -3.288176580E-05,   5.325271430E-09,  -3.204138820E-13,
               -9.686890160E+04,  -2.355527430E+02] )
             )
       )

species(name = "SPC(525)",
    atoms = " C:16  H:23  O:4 ",
    thermo = (
       NASA( [  300.00,   995.00], [  1.709281190E+00,   1.489376130E-01, 
               -4.703734200E-06,  -1.036129240E-07,   5.041972900E-11,
               -3.485063560E+04,  -1.381092670E+01] ),
       NASA( [  995.00,  5000.00], [  4.457297650E+01,   6.962582080E-02, 
               -2.533405900E-05,   4.135224850E-09,  -2.500090740E-13,
               -4.798474930E+04,  -2.435245040E+02] )
             )
       )

species(name = "SPC(1070)",
    atoms = " C:16  H:22  O:3 ",
    thermo = (
       NASA( [  300.00,   995.00], [  2.136014490E+00,   1.260045080E-01, 
                3.914342450E-05,  -1.414591470E-07,   6.214096340E-11,
               -5.442841840E+04,  -1.103315150E+01] ),
       NASA( [  995.00,  5000.00], [  4.223149710E+01,   6.658590490E-02, 
               -2.468860650E-05,   4.086350270E-09,  -2.493954220E-13,
               -6.744555860E+04,  -2.295858910E+02] )
             )
       )

species(name = "SPC(1121)",
    atoms = " C:16  H:23  O:5 ",
    thermo = (
       NASA( [  300.00,   995.00], [  1.552606070E+00,   1.512168750E-01, 
                7.709405800E-06,  -1.230724250E-07,   5.812544680E-11,
               -4.750930140E+04,  -1.146971130E+01] ),
       NASA( [  995.00,  5000.00], [  4.790960770E+01,   6.896525260E-02, 
               -2.522668930E-05,   4.134353780E-09,  -2.506291250E-13,
               -6.188827300E+04,  -2.607811050E+02] )
             )
       )

species(name = "SPC(75)",
    atoms = " C:16  H:33 ",
    thermo = (
       NASA( [  300.00,   995.00], [  2.642069280E+00,   1.401581400E-01, 
                1.665361760E-05,  -1.095718210E-07,   4.900473150E-11,
               -4.665942900E+04,  -1.209306280E+01] ),
       NASA( [  995.00,  5000.00], [  3.436263560E+01,   9.313031280E-02, 
               -3.378450850E-05,   5.511624030E-09,  -3.333363900E-13,
               -5.695662080E+04,  -1.849907130E+02] )
             )
       )

species(name = "SPC(1212)",
    atoms = " C:16  H:33  O:2 ",
    thermo = (
       NASA( [  300.00,   995.00], [  1.839679540E+00,   1.614742890E-01, 
               -5.778502490E-06,  -1.018877430E-07,   4.903089770E-11,
               -6.553555630E+04,  -1.012208780E+01] ),
       NASA( [  995.00,  5000.00], [  4.143187690E+01,   9.072026340E-02, 
               -3.238497580E-05,   5.225052350E-09,  -3.136077430E-13,
               -7.779121450E+04,  -2.229261750E+02] )
             )
       )

species(name = "SPC(1216)",
    atoms = " C:16  H:34  O:2 ",
    thermo = (
       NASA( [  300.00,   995.00], [  1.789730350E+00,   1.632253890E-01, 
                3.745018870E-06,  -1.161102430E-07,   5.453439500E-11,
               -8.382339110E+04,  -1.077880900E+01] ),
       NASA( [  995.00,  5000.00], [  4.347670710E+01,   9.158447930E-02, 
               -3.288176580E-05,   5.325271430E-09,  -3.204138820E-13,
               -9.686890160E+04,  -2.355527430E+02] )
             )
       )

species(name = "SPC(804)",
    atoms = " C:16  H:21  O:3 ",
    thermo = (
       NASA( [  300.00,   995.00], [  1.424629200E+00,   9.683996240E-02, 
                1.200964500E-04,  -2.183481310E-07,   8.717807810E-11,
               -3.468789290E+04,  -1.076250840E+01] ),
       NASA( [  995.00,  5000.00], [  3.965011090E+01,   6.769890860E-02, 
               -2.368867100E-05,   3.752598240E-09,  -2.219737020E-13,
               -4.845964600E+04,  -2.259647310E+02] )
             )
       )

species(name = "SPC(1294)",
    atoms = " C:16  H:20  O:2 ",
    thermo = (
       NASA( [  300.00,   995.00], [  1.228313140E+00,   8.138879330E-02, 
                1.551413780E-04,  -2.531911270E-07,   9.902110880E-11,
               -5.114110160E+04,  -2.525269780E+01] ),
       NASA( [  995.00,  5000.00], [  4.030106070E+01,   6.133460750E-02, 
               -2.117453060E-05,   3.322440130E-09,  -1.951281960E-13,
               -6.569993100E+04,  -2.476459990E+02] )
             )
       )

species(name = "SPC(71)",
    atoms = " C:16  H:33 ",
    thermo = (
       NASA( [  300.00,   995.00], [  2.642069280E+00,   1.401581400E-01, 
                1.665361760E-05,  -1.095718210E-07,   4.900473150E-11,
               -4.665942900E+04,  -1.209306280E+01] ),
       NASA( [  995.00,  5000.00], [  3.436263560E+01,   9.313031280E-02, 
               -3.378450850E-05,   5.511624030E-09,  -3.333363900E-13,
               -5.695662080E+04,  -1.849907130E+02] )
             )
       )

species(name = "SPC(1412)",
    atoms = " C:16  H:33  O:2 ",
    thermo = (
       NASA( [  300.00,   995.00], [  1.839679540E+00,   1.614742890E-01, 
               -5.778502490E-06,  -1.018877430E-07,   4.903089770E-11,
               -6.553555630E+04,  -1.012208780E+01] ),
       NASA( [  995.00,  5000.00], [  4.143187690E+01,   9.072026340E-02, 
               -3.238497580E-05,   5.225052350E-09,  -3.136077430E-13,
               -7.779121450E+04,  -2.229261750E+02] )
             )
       )

species(name = "SPC(1416)",
    atoms = " C:16  H:34  O:2 ",
    thermo = (
       NASA( [  300.00,   995.00], [  1.789730350E+00,   1.632253890E-01, 
                3.745018870E-06,  -1.161102430E-07,   5.453439500E-11,
               -8.382339110E+04,  -1.077880900E+01] ),
       NASA( [  995.00,  5000.00], [  4.347670710E+01,   9.158447930E-02, 
               -3.288176580E-05,   5.325271430E-09,  -3.204138820E-13,
               -9.686890160E+04,  -2.355527430E+02] )
             )
       )

species(name = "SPC(76)",
    atoms = " C:16  H:33 ",
    thermo = (
       NASA( [  300.00,   995.00], [  2.642069280E+00,   1.401581400E-01, 
                1.665361760E-05,  -1.095718210E-07,   4.900473150E-11,
               -4.665942900E+04,  -1.209306280E+01] ),
       NASA( [  995.00,  5000.00], [  3.436263560E+01,   9.313031280E-02, 
               -3.378450850E-05,   5.511624030E-09,  -3.333363900E-13,
               -5.695662080E+04,  -1.849907130E+02] )
             )
       )

species(name = "SPC(1504)",
    atoms = " C:16  H:33  O:2 ",
    thermo = (
       NASA( [  300.00,   995.00], [  1.839679540E+00,   1.614742890E-01, 
               -5.778502490E-06,  -1.018877430E-07,   4.903089770E-11,
               -6.553555630E+04,  -1.012208780E+01] ),
       NASA( [  995.00,  5000.00], [  4.143187690E+01,   9.072026340E-02, 
               -3.238497580E-05,   5.225052350E-09,  -3.136077430E-13,
               -7.779121450E+04,  -2.229261750E+02] )
             )
       )

species(name = "SPC(1508)",
    atoms = " C:16  H:34  O:2 ",
    thermo = (
       NASA( [  300.00,   995.00], [  1.789730350E+00,   1.632253890E-01, 
                3.745018870E-06,  -1.161102430E-07,   5.453439500E-11,
               -8.382339110E+04,  -1.077880900E+01] ),
       NASA( [  995.00,  5000.00], [  4.347670710E+01,   9.158447930E-02, 
               -3.288176580E-05,   5.325271430E-09,  -3.204138820E-13,
               -9.686890160E+04,  -2.355527430E+02] )
             )
       )

species(name = "SPC(1373)",
    atoms = " C:16  H:19  O:2 ",
    thermo = (
       NASA( [  300.00,   995.00], [  1.256206870E+00,   7.757644400E-02, 
                1.599612230E-04,  -2.569054140E-07,   1.001312130E-10,
               -3.415784770E+04,  -2.637584890E+01] ),
       NASA( [  995.00,  5000.00], [  4.000129600E+01,   5.959913980E-02, 
               -2.063078310E-05,   3.240393610E-09,  -1.903900540E-13,
               -4.868908060E+04,  -2.473790040E+02] )
             )
       )

species(name = "SPC(1603)",
    atoms = " C:16  H:19  O:4 ",
    thermo = (
       NASA( [  300.00,   995.00], [  9.342094370E-01,   1.017309860E-01, 
                1.184492460E-04,  -2.256465850E-07,   9.141474060E-11,
               -4.623411090E+04,  -2.332914570E+01] ),
       NASA( [  995.00,  5000.00], [  4.484497700E+01,   5.959173540E-02, 
               -2.059946150E-05,   3.235495890E-09,  -1.901664560E-13,
               -6.162522280E+04,  -2.683831780E+02] )
             )
       )

species(name = "SPC(1620)",
    atoms = " C:16  H:20  O:4 ",
    thermo = (
       NASA( [  300.00,   995.00], [  8.842602390E-01,   1.034820870E-01, 
                1.279727670E-04,  -2.398690850E-07,   9.691823790E-11,
               -6.452194560E+04,  -2.398586690E+01] ),
       NASA( [  995.00,  5000.00], [  4.688980720E+01,   6.045595140E-02, 
               -2.109625150E-05,   3.335714970E-09,  -1.969725950E-13,
               -8.070290990E+04,  -2.810097460E+02] )
             )
       )

species(name = "SPC(73)",
    atoms = " C:16  H:33 ",
    thermo = (
       NASA( [  300.00,   995.00], [  2.642069280E+00,   1.401581400E-01, 
                1.665361760E-05,  -1.095718210E-07,   4.900473150E-11,
               -4.665942900E+04,  -1.209306280E+01] ),
       NASA( [  995.00,  5000.00], [  3.436263560E+01,   9.313031280E-02, 
               -3.378450850E-05,   5.511624030E-09,  -3.333363900E-13,
               -5.695662080E+04,  -1.849907130E+02] )
             )
       )

species(name = "SPC(1752)",
    atoms = " C:16  H:33  O:2 ",
    thermo = (
       NASA( [  300.00,   995.00], [  1.839679540E+00,   1.614742890E-01, 