!  This chemkin file was generated by RMG - Reaction Mechanism Generator (http://rmg.mit.edu)
!  The java code was compiled by ant at:
!    2010-06-03T15:58:41
!  The git repository was on the branch:
!    autoxidation
!  And at the commit with the hash:
!    68c75c9d5ffbc21d425d374b8d224762a9598ad3
!
!  For details visit:
!   http://github.com/GreenGroup/RMG-Java/tree/68c75c
!To see changes since then visit:
!   http://github.com/GreenGroup/RMG-Java/compare/68c75c...master

ELEMENTS H C O N Ne Ar He Si S END
SPECIES
	SPC(1)	!n-decylbenzene
	SPC(2)	!n-undecane
	SPC(3)	!n-tridecane
	SPC(4)	!naphthalene
	SPC(5)	!n-hexadecane
	O2(6)
	SPC(7)	!n-nonadecane
	SPC(8)	!n-heneicosane
	HO2J(43)
	SPC(17)	!C16H25J
	C11H9J(66)
END
THERMO ALL
   300.000  1000.000  5000.000
! The first four sets of polynomial coefficients (Ar, N2, Ne, He) are from         
! THIRD MILLENIUM IDEAL GAS AND CONDENSED PHASE THERMOCHEMICAL DATABASE FOR     
! COMBUSTION WITH UPDATES FROM ACTIVE THERMOCHENICAL TABLES                     
! Authors: Alexander Burcat and Branko Ruscic                                   
!                                                                               
! The rest of the species are estimated by RMG (http://rmg.mit.edu/)            
Ar                L 6/88Ar  1               G   200.000  6000.000 1000.        1
 0.25000000E+01 0.00000000E+00 0.00000000E+00 0.00000000E+00 0.00000000E+00    2
-0.74537500E+03 0.43796749E+01 0.25000000E+01 0.00000000E+00 0.00000000E+00    3
 0.00000000E+00 0.00000000E+00-0.74537500E+03 0.43796749E+01                   4
N2                G 8/02N   2               G   200.000  6000.000 1000.        1
 2.95257637E+00 1.39690040E-03-4.92631603E-07 7.86010195E-11-4.60755204E-15    2
-9.23948688E+02 5.87188762E+00 3.53100528E+00-1.23660988E-04-5.02999433E-07    3
 2.43530612E-09-1.40881235E-12-1.04697628E+03 2.96747038E+00                   4
Ne                L10/90Ne  1               G    200.0   6000.00  1000.0       1
 0.25000000E+01 0.00000000E+00 0.00000000E+00 0.00000000E+00 0.00000000E+00    2
-0.74537500E+03 0.33553227E+01 0.25000000E+01 0.00000000E+00 0.00000000E+00    3
 0.00000000E+00 0.00000000E+00-0.74537498E+03 0.33553227E+01                   4
He REF ELEMENT          He  1               G   200.000  6000.000 1000.        1
 2.50000000E+00 0.00000000E+00 0.00000000E+00 0.00000000E+00 0.00000000E+00    2
-7.45375000E+02 9.28723974E-01 2.50000000E+00 0.00000000E+00 0.00000000E+00    3
 0.00000000E+00 0.00000000E+00-7.45375000E+02 9.28723974E-01 0.00000000E+00    4

!Estimated by RMG using Group Additivity
SPC(1)                  C  16H  26          G   300.000  5000.000   995.043    1
 3.57646840E+01 7.38090261E-02-2.64824772E-05 4.28846807E-09-2.57946794E-13    2
-5.14393134E+04-2.03458432E+02 2.20795129E+00 1.03781096E-01 8.65048752E-05    3
-1.77383310E-07 7.20111554E-11-3.95669421E+04-1.56324963E+01                   4

!Estimated by RMG using Group Additivity
SPC(2)                  C  11H  24          G   300.000  5000.000   995.043    1
 2.60061484E+01 6.38892438E-02-2.28407483E-05 3.69027154E-09-2.21693293E-13    2
-5.98122669E+04-1.44372355E+02 2.80660224E+00 8.83404413E-02 4.40278881E-05    3
-1.10607521E-07 4.59558203E-11-5.17889195E+04-1.54461970E+01                   4

!Estimated by RMG using Group Additivity
SPC(3)                  C  13H  28          G   300.000  5000.000   995.043    1
 3.07053495E+01 7.49686651E-02-2.68781610E-05 4.35126880E-09-2.61768180E-13    2
-6.86232867E+04-1.70063527E+02 2.58151103E+00 1.08998739E-01 4.09515605E-05    3
-1.20908911E-07 5.12624648E-11-5.91141937E+04-1.48635330E+01                   4

!Estimated by RMG using Group Additivity
SPC(4)                  C  11H  10          G   300.000  5000.000   995.043    1
 1.99543052E+01 3.65535524E-02-1.29116584E-05 2.06136391E-09-1.22616726E-13    2
-8.90071304E+03-1.22132762E+02 2.91765803E+00 3.26525402E-02 1.02090605E-04    3
-1.48098918E-07 5.59730704E-11-1.92671435E+03-2.20183862E+01                   4

!Estimated by RMG using Group Additivity
SPC(5)                  C  16H  34          G   300.000  5000.000   995.043    1
 3.77541511E+01 9.15877972E-02-3.29342801E-05 5.34276469E-09-3.21880512E-13    2
-8.17208370E+04-2.08201027E+02 2.24387421E+00 1.39986184E-01 3.63370692E-05    3
-1.36360995E-07 5.92224316E-11-6.99831259E+04-1.35902780E+01                   4

!Estimated by RMG using Group Additivity
O2(6)                   C   0H   0O   2     G   300.000  5000.000   995.043    1
 3.31508547E+00 1.32006465E-03-5.32714395E-07 9.20149371E-11-5.75811318E-15    2
-4.53677493E+03-5.04042637E+00 3.54508403E+00-1.39003342E-03 6.24430868E-06    3
-6.25186428E-09 2.04119777E-12-4.49415352E+03-5.70472615E+00                   4

!Estimated by RMG using Group Additivity
SPC(7)                  C  19H  40          G   300.000  5000.000   995.043    1
 4.48029527E+01 1.08206929E-01-3.89903992E-05 6.33426058E-09-3.81992844E-13    2
-9.47061957E+04-2.45962045E+02 1.90623740E+00 1.70973630E-01 3.17225778E-05    3
-1.51813080E-07 6.71823984E-11-8.07398663E+04-1.19405407E+01                   4

!Estimated by RMG using Group Additivity
SPC(8)                  C  21H  44          G   300.000  5000.000   995.043    1
 4.95021538E+01 1.19286351E-01-4.30278119E-05 6.99525783E-09-4.22067732E-13    2
-1.03312543E+05-2.70966399E+02 1.68114619E+00 1.91631927E-01 2.86462502E-05    3
-1.62114469E-07 7.24890430E-11-8.78604685E+04-1.06710580E+01                   4

!Estimated by RMG using Group Additivity
HO2J(43)                C   0H   1O   2     G   300.000  5000.000   995.043    1
 3.24380419E+00 3.66065214E-03-1.26589715E-06 1.97776743E-10-1.15806423E-14    2
-7.07850170E+03-1.11026205E+01 4.03383318E+00-1.43110813E-03 9.29796195E-06    3
-8.81491966E-09 2.73898818E-12-7.14087659E+03-1.44335268E+01                   4

!Estimated by RMG using Group Additivity
SPC(17)                 C  16H  25          G   300.000  5000.000   995.043    1
 3.52276567E+01 7.24578819E-02-2.57178347E-05 4.12778059E-09-2.46719165E-13    2
-3.39010384E+04-2.01840008E+02 2.04608900E+00 1.12496734E-01 5.46452407E-05    3
-1.43995589E-07 6.06563026E-11-2.26763503E+04-1.87015467E+01                   4

!Estimated by RMG using Group Additivity
C11H9J(66)              C  11H   9          G   300.000  5000.000   995.043    1
 2.09447403E+01 3.31035326E-02-1.09946431E-05 1.66872551E-09-9.55340668E-14    2
 9.31275374E+03-1.28696992E+02 2.40968256E+00 3.92209220E-02 8.28829481E-05    3
-1.30303477E-07 5.04167544E-11 1.63871794E+04-2.23548719E+01                   4

END

REACTIONS	KCAL/MOL	MOLES
HO2J(43)+SPC(17)=O2(6)+SPC(1) 3.0000000e+11 	 0.00000 	 0.00000 	 !Disproportionation estimate: (Average:)  O_Orad     C_rad/H/OneDeC     
SPC(1)+O2(6)=>SPC(17)+HO2J(43) 4.0000000e+16 	 0.00000 	 28.86735 	 !primary_initiation exact:   RH     O2d      (Ea computed using deltaHrxn(T=298K) of 28.86735206942369 kcal/mol)
HO2J(43)+C11H9J(66)=O2(6)+SPC(4) 3.0000000e+11 	 0.00000 	 0.00000 	 !Disproportionation estimate: (Average:)  O_Orad     C_rad/H2/Cb     
SPC(4)+O2(6)=>C11H9J(66)+HO2J(43) 6.0000000e+16 	 0.00000 	 31.46716 	 !primary_initiation exact:   RH     O2d      (Ea computed using deltaHrxn(T=298K) of 31.467158713826272 kcal/mol)
C11H9J(66)+SPC(1)=SPC(4)+SPC(17) 3.0397882e+06 	 1.88583 	 9.44833 	 !H_Abstraction estimate: (Average:)  C_rad/H2/Cb     C/H2/OneDeC     
END
